
---------- Begin Simulation Statistics ----------
simSeconds                                   0.000473                       # Number of seconds simulated (Second)
simTicks                                    473236500                       # Number of ticks simulated (Tick)
finalTick                                   473236500                       # Number of ticks from beginning of simulation (restored from checkpoints and never reset) (Tick)
simFreq                                  1000000000000                       # The number of ticks per simulated second ((Tick/Second))
hostSeconds                                      4.61                       # Real time elapsed on the host (Second)
hostTickRate                                102621192                       # The number of ticks simulated per host second (ticks/s) ((Tick/Second))
hostMemory                                    8539344                       # Number of bytes of host memory used (Byte)
simInsts                                      1000001                       # Number of instructions simulated (Count)
simOps                                        1111649                       # Number of ops (including micro ops) simulated (Count)
hostInstRate                                   216794                       # Simulator instruction rate (inst/s) ((Count/Second))
hostOpRate                                     240998                       # Simulator op (including micro ops) rate (op/s) ((Count/Second))
system.clk_domain.clock                          1000                       # Clock period in ticks (Tick)
system.cpu.numCycles                           946474                       # Number of cpu cycles simulated (Cycle)
system.cpu.numWorkItemsStarted                      0                       # Number of work items this cpu started (Count)
system.cpu.numWorkItemsCompleted                    0                       # Number of work items this cpu completed (Count)
system.cpu.instsAdded                         1163952                       # Number of instructions added to the IQ (excludes non-spec) (Count)
system.cpu.nonSpecInstsAdded                      504                       # Number of non-speculative instructions added to the IQ (Count)
system.cpu.instsIssued                        1156272                       # Number of instructions issued (Count)
system.cpu.squashedInstsIssued                    359                       # Number of squashed instructions issued (Count)
system.cpu.squashedInstsExamined                52788                       # Number of squashed instructions iterated over during squash; mainly for profiling (Count)
system.cpu.squashedOperandsExamined             29370                       # Number of squashed operands that are examined and possibly removed from graph (Count)
system.cpu.squashedNonSpecRemoved                  18                       # Number of squashed non-spec instructions that were removed (Count)
system.cpu.numIssuedDist::samples              851026                       # Number of insts issued each cycle (Count)
system.cpu.numIssuedDist::mean               1.358680                       # Number of insts issued each cycle (Count)
system.cpu.numIssuedDist::stdev              1.490246                       # Number of insts issued each cycle (Count)
system.cpu.numIssuedDist::underflows                0      0.00%      0.00% # Number of insts issued each cycle (Count)
system.cpu.numIssuedDist::0                    376266     44.21%     44.21% # Number of insts issued each cycle (Count)
system.cpu.numIssuedDist::1                    142069     16.69%     60.91% # Number of insts issued each cycle (Count)
system.cpu.numIssuedDist::2                    105895     12.44%     73.35% # Number of insts issued each cycle (Count)
system.cpu.numIssuedDist::3                    104771     12.31%     85.66% # Number of insts issued each cycle (Count)
system.cpu.numIssuedDist::4                    122025     14.34%    100.00% # Number of insts issued each cycle (Count)
system.cpu.numIssuedDist::overflows                 0      0.00%    100.00% # Number of insts issued each cycle (Count)
system.cpu.numIssuedDist::min_value                 0                       # Number of insts issued each cycle (Count)
system.cpu.numIssuedDist::max_value                 4                       # Number of insts issued each cycle (Count)
system.cpu.numIssuedDist::total                851026                       # Number of insts issued each cycle (Count)
system.cpu.statFuBusy::No_OpClass                   0      0.00%      0.00% # attempts to use FU when none available (Count)
system.cpu.statFuBusy::IntAlu                       0      0.00%      0.00% # attempts to use FU when none available (Count)
system.cpu.statFuBusy::IntMult                    282     84.68%     84.68% # attempts to use FU when none available (Count)
system.cpu.statFuBusy::IntDiv                       0      0.00%     84.68% # attempts to use FU when none available (Count)
system.cpu.statFuBusy::FloatAdd                     0      0.00%     84.68% # attempts to use FU when none available (Count)
system.cpu.statFuBusy::FloatCmp                     0      0.00%     84.68% # attempts to use FU when none available (Count)
system.cpu.statFuBusy::FloatCvt                     0      0.00%     84.68% # attempts to use FU when none available (Count)
system.cpu.statFuBusy::FloatMult                   14      4.20%     88.89% # attempts to use FU when none available (Count)
system.cpu.statFuBusy::FloatMultAcc                 1      0.30%     89.19% # attempts to use FU when none available (Count)
system.cpu.statFuBusy::FloatDiv                    36     10.81%    100.00% # attempts to use FU when none available (Count)
system.cpu.statFuBusy::FloatMisc                    0      0.00%    100.00% # attempts to use FU when none available (Count)
system.cpu.statFuBusy::FloatSqrt                    0      0.00%    100.00% # attempts to use FU when none available (Count)
system.cpu.statFuBusy::SimdAdd                      0      0.00%    100.00% # attempts to use FU when none available (Count)
system.cpu.statFuBusy::SimdAddAcc                   0      0.00%    100.00% # attempts to use FU when none available (Count)
system.cpu.statFuBusy::SimdAlu                      0      0.00%    100.00% # attempts to use FU when none available (Count)
system.cpu.statFuBusy::SimdCmp                      0      0.00%    100.00% # attempts to use FU when none available (Count)
system.cpu.statFuBusy::SimdCvt                      0      0.00%    100.00% # attempts to use FU when none available (Count)
system.cpu.statFuBusy::SimdMisc                     0      0.00%    100.00% # attempts to use FU when none available (Count)
system.cpu.statFuBusy::SimdMult                     0      0.00%    100.00% # attempts to use FU when none available (Count)
system.cpu.statFuBusy::SimdMultAcc                  0      0.00%    100.00% # attempts to use FU when none available (Count)
system.cpu.statFuBusy::SimdShift                    0      0.00%    100.00% # attempts to use FU when none available (Count)
system.cpu.statFuBusy::SimdShiftAcc                 0      0.00%    100.00% # attempts to use FU when none available (Count)
system.cpu.statFuBusy::SimdDiv                      0      0.00%    100.00% # attempts to use FU when none available (Count)
system.cpu.statFuBusy::SimdSqrt                     0      0.00%    100.00% # attempts to use FU when none available (Count)
system.cpu.statFuBusy::SimdFloatAdd                 0      0.00%    100.00% # attempts to use FU when none available (Count)
system.cpu.statFuBusy::SimdFloatAlu                 0      0.00%    100.00% # attempts to use FU when none available (Count)
system.cpu.statFuBusy::SimdFloatCmp                 0      0.00%    100.00% # attempts to use FU when none available (Count)
system.cpu.statFuBusy::SimdFloatCvt                 0      0.00%    100.00% # attempts to use FU when none available (Count)
system.cpu.statFuBusy::SimdFloatDiv                 0      0.00%    100.00% # attempts to use FU when none available (Count)
system.cpu.statFuBusy::SimdFloatMisc                0      0.00%    100.00% # attempts to use FU when none available (Count)
system.cpu.statFuBusy::SimdFloatMult                0      0.00%    100.00% # attempts to use FU when none available (Count)
system.cpu.statFuBusy::SimdFloatMultAcc             0      0.00%    100.00% # attempts to use FU when none available (Count)
system.cpu.statFuBusy::SimdFloatSqrt                0      0.00%    100.00% # attempts to use FU when none available (Count)
system.cpu.statFuBusy::SimdReduceAdd                0      0.00%    100.00% # attempts to use FU when none available (Count)
system.cpu.statFuBusy::SimdReduceAlu                0      0.00%    100.00% # attempts to use FU when none available (Count)
system.cpu.statFuBusy::SimdReduceCmp                0      0.00%    100.00% # attempts to use FU when none available (Count)
system.cpu.statFuBusy::SimdFloatReduceAdd            0      0.00%    100.00% # attempts to use FU when none available (Count)
system.cpu.statFuBusy::SimdFloatReduceCmp            0      0.00%    100.00% # attempts to use FU when none available (Count)
system.cpu.statFuBusy::SimdAes                      0      0.00%    100.00% # attempts to use FU when none available (Count)
system.cpu.statFuBusy::SimdAesMix                   0      0.00%    100.00% # attempts to use FU when none available (Count)
system.cpu.statFuBusy::SimdSha1Hash                 0      0.00%    100.00% # attempts to use FU when none available (Count)
system.cpu.statFuBusy::SimdSha1Hash2                0      0.00%    100.00% # attempts to use FU when none available (Count)
system.cpu.statFuBusy::SimdSha256Hash               0      0.00%    100.00% # attempts to use FU when none available (Count)
system.cpu.statFuBusy::SimdSha256Hash2              0      0.00%    100.00% # attempts to use FU when none available (Count)
system.cpu.statFuBusy::SimdShaSigma2                0      0.00%    100.00% # attempts to use FU when none available (Count)
system.cpu.statFuBusy::SimdShaSigma3                0      0.00%    100.00% # attempts to use FU when none available (Count)
system.cpu.statFuBusy::SimdPredAlu                  0      0.00%    100.00% # attempts to use FU when none available (Count)
system.cpu.statFuBusy::MemRead                      0      0.00%    100.00% # attempts to use FU when none available (Count)
system.cpu.statFuBusy::MemWrite                     0      0.00%    100.00% # attempts to use FU when none available (Count)
system.cpu.statFuBusy::FloatMemRead                 0      0.00%    100.00% # attempts to use FU when none available (Count)
system.cpu.statFuBusy::FloatMemWrite                0      0.00%    100.00% # attempts to use FU when none available (Count)
system.cpu.statFuBusy::IprAccess                    0      0.00%    100.00% # attempts to use FU when none available (Count)
system.cpu.statFuBusy::InstPrefetch                 0      0.00%    100.00% # attempts to use FU when none available (Count)
system.cpu.statIssuedInstType_0::No_OpClass          211      0.02%      0.02% # Number of instructions issued per FU type, per thread (Count)
system.cpu.statIssuedInstType_0::IntAlu        823309     71.20%     71.22% # Number of instructions issued per FU type, per thread (Count)
system.cpu.statIssuedInstType_0::IntMult         3856      0.33%     71.56% # Number of instructions issued per FU type, per thread (Count)
system.cpu.statIssuedInstType_0::IntDiv           912      0.08%     71.63% # Number of instructions issued per FU type, per thread (Count)
system.cpu.statIssuedInstType_0::FloatAdd          438      0.04%     71.67% # Number of instructions issued per FU type, per thread (Count)
system.cpu.statIssuedInstType_0::FloatCmp            7      0.00%     71.67% # Number of instructions issued per FU type, per thread (Count)
system.cpu.statIssuedInstType_0::FloatCvt            0      0.00%     71.67% # Number of instructions issued per FU type, per thread (Count)
system.cpu.statIssuedInstType_0::FloatMult           16      0.00%     71.67% # Number of instructions issued per FU type, per thread (Count)
system.cpu.statIssuedInstType_0::FloatMultAcc           22      0.00%     71.68% # Number of instructions issued per FU type, per thread (Count)
system.cpu.statIssuedInstType_0::FloatDiv            9      0.00%     71.68% # Number of instructions issued per FU type, per thread (Count)
system.cpu.statIssuedInstType_0::FloatMisc         1805      0.16%     71.83% # Number of instructions issued per FU type, per thread (Count)
system.cpu.statIssuedInstType_0::FloatSqrt            1      0.00%     71.83% # Number of instructions issued per FU type, per thread (Count)
system.cpu.statIssuedInstType_0::SimdAdd          460      0.04%     71.87% # Number of instructions issued per FU type, per thread (Count)
system.cpu.statIssuedInstType_0::SimdAddAcc            0      0.00%     71.87% # Number of instructions issued per FU type, per thread (Count)
system.cpu.statIssuedInstType_0::SimdAlu          727      0.06%     71.94% # Number of instructions issued per FU type, per thread (Count)
system.cpu.statIssuedInstType_0::SimdCmp          678      0.06%     71.99% # Number of instructions issued per FU type, per thread (Count)
system.cpu.statIssuedInstType_0::SimdCvt            0      0.00%     71.99% # Number of instructions issued per FU type, per thread (Count)
system.cpu.statIssuedInstType_0::SimdMisc          547      0.05%     72.04% # Number of instructions issued per FU type, per thread (Count)
system.cpu.statIssuedInstType_0::SimdMult            0      0.00%     72.04% # Number of instructions issued per FU type, per thread (Count)
system.cpu.statIssuedInstType_0::SimdMultAcc            0      0.00%     72.04% # Number of instructions issued per FU type, per thread (Count)
system.cpu.statIssuedInstType_0::SimdShift            0      0.00%     72.04% # Number of instructions issued per FU type, per thread (Count)
system.cpu.statIssuedInstType_0::SimdShiftAcc            0      0.00%     72.04% # Number of instructions issued per FU type, per thread (Count)
system.cpu.statIssuedInstType_0::SimdDiv            0      0.00%     72.04% # Number of instructions issued per FU type, per thread (Count)
system.cpu.statIssuedInstType_0::SimdSqrt            0      0.00%     72.04% # Number of instructions issued per FU type, per thread (Count)
system.cpu.statIssuedInstType_0::SimdFloatAdd            0      0.00%     72.04% # Number of instructions issued per FU type, per thread (Count)
system.cpu.statIssuedInstType_0::SimdFloatAlu            0      0.00%     72.04% # Number of instructions issued per FU type, per thread (Count)
system.cpu.statIssuedInstType_0::SimdFloatCmp            0      0.00%     72.04% # Number of instructions issued per FU type, per thread (Count)
system.cpu.statIssuedInstType_0::SimdFloatCvt            0      0.00%     72.04% # Number of instructions issued per FU type, per thread (Count)
system.cpu.statIssuedInstType_0::SimdFloatDiv            0      0.00%     72.04% # Number of instructions issued per FU type, per thread (Count)
system.cpu.statIssuedInstType_0::SimdFloatMisc            0      0.00%     72.04% # Number of instructions issued per FU type, per thread (Count)
system.cpu.statIssuedInstType_0::SimdFloatMult            0      0.00%     72.04% # Number of instructions issued per FU type, per thread (Count)
system.cpu.statIssuedInstType_0::SimdFloatMultAcc            0      0.00%     72.04% # Number of instructions issued per FU type, per thread (Count)
system.cpu.statIssuedInstType_0::SimdFloatSqrt            0      0.00%     72.04% # Number of instructions issued per FU type, per thread (Count)
system.cpu.statIssuedInstType_0::SimdReduceAdd            0      0.00%     72.04% # Number of instructions issued per FU type, per thread (Count)
system.cpu.statIssuedInstType_0::SimdReduceAlu            0      0.00%     72.04% # Number of instructions issued per FU type, per thread (Count)
system.cpu.statIssuedInstType_0::SimdReduceCmp            0      0.00%     72.04% # Number of instructions issued per FU type, per thread (Count)
system.cpu.statIssuedInstType_0::SimdFloatReduceAdd            0      0.00%     72.04% # Number of instructions issued per FU type, per thread (Count)
system.cpu.statIssuedInstType_0::SimdFloatReduceCmp            0      0.00%     72.04% # Number of instructions issued per FU type, per thread (Count)
system.cpu.statIssuedInstType_0::SimdAes            0      0.00%     72.04% # Number of instructions issued per FU type, per thread (Count)
system.cpu.statIssuedInstType_0::SimdAesMix            0      0.00%     72.04% # Number of instructions issued per FU type, per thread (Count)
system.cpu.statIssuedInstType_0::SimdSha1Hash            0      0.00%     72.04% # Number of instructions issued per FU type, per thread (Count)
system.cpu.statIssuedInstType_0::SimdSha1Hash2            0      0.00%     72.04% # Number of instructions issued per FU type, per thread (Count)
system.cpu.statIssuedInstType_0::SimdSha256Hash            0      0.00%     72.04% # Number of instructions issued per FU type, per thread (Count)
system.cpu.statIssuedInstType_0::SimdSha256Hash2            0      0.00%     72.04% # Number of instructions issued per FU type, per thread (Count)
system.cpu.statIssuedInstType_0::SimdShaSigma2            0      0.00%     72.04% # Number of instructions issued per FU type, per thread (Count)
system.cpu.statIssuedInstType_0::SimdShaSigma3            0      0.00%     72.04% # Number of instructions issued per FU type, per thread (Count)
system.cpu.statIssuedInstType_0::SimdPredAlu            0      0.00%     72.04% # Number of instructions issued per FU type, per thread (Count)
system.cpu.statIssuedInstType_0::MemRead       188765     16.33%     88.37% # Number of instructions issued per FU type, per thread (Count)
system.cpu.statIssuedInstType_0::MemWrite       134509     11.63%    100.00% # Number of instructions issued per FU type, per thread (Count)
system.cpu.statIssuedInstType_0::FloatMemRead            0      0.00%    100.00% # Number of instructions issued per FU type, per thread (Count)
system.cpu.statIssuedInstType_0::FloatMemWrite            0      0.00%    100.00% # Number of instructions issued per FU type, per thread (Count)
system.cpu.statIssuedInstType_0::IprAccess            0      0.00%    100.00% # Number of instructions issued per FU type, per thread (Count)
system.cpu.statIssuedInstType_0::InstPrefetch            0      0.00%    100.00% # Number of instructions issued per FU type, per thread (Count)
system.cpu.statIssuedInstType_0::total        1156272                       # Number of instructions issued per FU type, per thread (Count)
system.cpu.issueRate                         1.221663                       # Inst issue rate ((Count/Cycle))
system.cpu.fuBusy                                 333                       # FU busy when requested (Count)
system.cpu.fuBusyRate                        0.000288                       # FU busy rate (busy events/executed inst) ((Count/Count))
system.cpu.intInstQueueReads                  3140810                       # Number of integer instruction queue reads (Count)
system.cpu.intInstQueueWrites                 1203511                       # Number of integer instruction queue writes (Count)
system.cpu.intInstQueueWakeupAccesses         1132323                       # Number of integer instruction queue wakeup accesses (Count)
system.cpu.fpInstQueueReads                         0                       # Number of floating instruction queue reads (Count)
system.cpu.fpInstQueueWrites                        0                       # Number of floating instruction queue writes (Count)
system.cpu.fpInstQueueWakeupAccesses                0                       # Number of floating instruction queue wakeup accesses (Count)
system.cpu.vecInstQueueReads                    23449                       # Number of vector instruction queue reads (Count)
system.cpu.vecInstQueueWrites                   13774                       # Number of vector instruction queue writes (Count)
system.cpu.vecInstQueueWakeupAccesses           11491                       # Number of vector instruction queue wakeup accesses (Count)
system.cpu.intAluAccesses                     1144855                       # Number of integer alu accesses (Count)
system.cpu.fpAluAccesses                            0                       # Number of floating point alu accesses (Count)
system.cpu.vecAluAccesses                       11539                       # Number of vector alu accesses (Count)
system.cpu.numInsts                           1152011                       # Number of executed instructions (Count)
system.cpu.numLoadInsts                        187665                       # Number of load instructions executed (Count)
system.cpu.numSquashedInsts                      4258                       # Number of squashed instructions skipped in execute (Count)
system.cpu.numSwp                                   0                       # Number of swp insts executed (Count)
system.cpu.numNop                                2006                       # Number of nop insts executed (Count)
system.cpu.numRefs                             321748                       # Number of memory reference insts executed (Count)
system.cpu.numBranches                         222639                       # Number of branches executed (Count)
system.cpu.numStoreInsts                       134083                       # Number of stores executed (Count)
system.cpu.numRate                           1.217161                       # Inst execution rate ((Count/Cycle))
system.cpu.timesIdled                            8241                       # Number of times that the entire CPU went into an idle state and unscheduled itself (Count)
system.cpu.idleCycles                           95448                       # Total number of cycles that the CPU has spent unscheduled due to idling (Cycle)
system.cpu.committedInsts                     1000001                       # Number of Instructions Simulated (Count)
system.cpu.committedOps                       1111649                       # Number of Ops (including micro ops) Simulated (Count)
system.cpu.cpi                               0.946473                       # CPI: Cycles Per Instruction ((Cycle/Count))
system.cpu.totalCpi                          0.946473                       # CPI: Total CPI of All Threads ((Cycle/Count))
system.cpu.ipc                               1.056554                       # IPC: Instructions Per Cycle ((Count/Cycle))
system.cpu.totalIpc                          1.056554                       # IPC: Total IPC of All Threads ((Count/Cycle))
system.cpu.intRegfileReads                    1202066                       # Number of integer regfile reads (Count)
system.cpu.intRegfileWrites                    707787                       # Number of integer regfile writes (Count)
system.cpu.vecRegfileReads                      17003                       # number of vector regfile reads (Count)
system.cpu.ccRegfileReads                      401601                       # number of cc regfile reads (Count)
system.cpu.ccRegfileWrites                     395737                       # number of cc regfile writes (Count)
system.cpu.miscRegfileReads                    161639                       # number of misc regfile reads (Count)
system.cpu.miscRegfileWrites                     2390                       # number of misc regfile writes (Count)
system.cpu.MemDepUnit__0.insertedLoads         185309                       # Number of loads inserted to the mem dependence unit. (Count)
system.cpu.MemDepUnit__0.insertedStores        135944                       # Number of stores inserted to the mem dependence unit. (Count)
system.cpu.MemDepUnit__0.conflictingLoads         5777                       # Number of conflicting loads. (Count)
system.cpu.MemDepUnit__0.conflictingStores         3509                       # Number of conflicting stores. (Count)
system.cpu.MemDepUnit__1.insertedLoads              0                       # Number of loads inserted to the mem dependence unit. (Count)
system.cpu.MemDepUnit__1.insertedStores             0                       # Number of stores inserted to the mem dependence unit. (Count)
system.cpu.MemDepUnit__1.conflictingLoads            0                       # Number of conflicting loads. (Count)
system.cpu.MemDepUnit__1.conflictingStores            0                       # Number of conflicting stores. (Count)
system.cpu.MemDepUnit__2.insertedLoads              0                       # Number of loads inserted to the mem dependence unit. (Count)
system.cpu.MemDepUnit__2.insertedStores             0                       # Number of stores inserted to the mem dependence unit. (Count)
system.cpu.MemDepUnit__2.conflictingLoads            0                       # Number of conflicting loads. (Count)
system.cpu.MemDepUnit__2.conflictingStores            0                       # Number of conflicting stores. (Count)
system.cpu.MemDepUnit__3.insertedLoads              0                       # Number of loads inserted to the mem dependence unit. (Count)
system.cpu.MemDepUnit__3.insertedStores             0                       # Number of stores inserted to the mem dependence unit. (Count)
system.cpu.MemDepUnit__3.conflictingLoads            0                       # Number of conflicting loads. (Count)
system.cpu.MemDepUnit__3.conflictingStores            0                       # Number of conflicting stores. (Count)
system.cpu.branchPred.lookups                  234683                       # Number of BP lookups (Count)
system.cpu.branchPred.condPredicted            182292                       # Number of conditional branches predicted (Count)
system.cpu.branchPred.condIncorrect              4458                       # Number of conditional branches incorrect (Count)
system.cpu.branchPred.BTBLookups               111703                       # Number of BTB lookups (Count)
system.cpu.branchPred.BTBHits                  110134                       # Number of BTB hits (Count)
system.cpu.branchPred.BTBHitRatio            0.985954                       # BTB Hit Ratio (Ratio)
system.cpu.branchPred.RASUsed                   11921                       # Number of times the RAS was used to get a target. (Count)
system.cpu.branchPred.RASIncorrect                  1                       # Number of incorrect RAS predictions. (Count)
system.cpu.branchPred.indirectLookups            3154                       # Number of indirect predictor lookups. (Count)
system.cpu.branchPred.indirectHits               2797                       # Number of indirect target hits. (Count)
system.cpu.branchPred.indirectMisses              357                       # Number of indirect misses. (Count)
system.cpu.branchPred.indirectMispredicted          103                       # Number of mispredicted indirect branches. (Count)
system.cpu.commit.commitSquashedInsts           52296                       # The number of squashed insts skipped by commit (Count)
system.cpu.commit.commitNonSpecStalls             486                       # The number of times commit has been forced to stall to communicate backwards (Count)
system.cpu.commit.branchMispredicts              4010                       # The number of times a branch was mispredicted (Count)
system.cpu.commit.numCommittedDist::samples       835996                       # Number of insts commited each cycle (Count)
system.cpu.commit.numCommittedDist::mean     1.331950                       # Number of insts commited each cycle (Count)
system.cpu.commit.numCommittedDist::stdev     1.549596                       # Number of insts commited each cycle (Count)
system.cpu.commit.numCommittedDist::underflows            0      0.00%      0.00% # Number of insts commited each cycle (Count)
system.cpu.commit.numCommittedDist::0          382615     45.77%     45.77% # Number of insts commited each cycle (Count)
system.cpu.commit.numCommittedDist::1          164610     19.69%     65.46% # Number of insts commited each cycle (Count)
system.cpu.commit.numCommittedDist::2           74471      8.91%     74.37% # Number of insts commited each cycle (Count)
system.cpu.commit.numCommittedDist::3           57247      6.85%     81.21% # Number of insts commited each cycle (Count)
system.cpu.commit.numCommittedDist::4          157053     18.79%    100.00% # Number of insts commited each cycle (Count)
system.cpu.commit.numCommittedDist::overflows            0      0.00%    100.00% # Number of insts commited each cycle (Count)
system.cpu.commit.numCommittedDist::min_value            0                       # Number of insts commited each cycle (Count)
system.cpu.commit.numCommittedDist::max_value            4                       # Number of insts commited each cycle (Count)
system.cpu.commit.numCommittedDist::total       835996                       # Number of insts commited each cycle (Count)
system.cpu.commit.instsCommitted              1001857                       # Number of instructions committed (Count)
system.cpu.commit.opsCommitted                1113505                       # Number of ops (including micro ops) committed (Count)
system.cpu.commit.memRefs                      307422                       # Number of memory references committed (Count)
system.cpu.commit.loads                        176932                       # Number of loads committed (Count)
system.cpu.commit.amos                              0                       # Number of atomic instructions committed (Count)
system.cpu.commit.membars                         475                       # Number of memory barriers committed (Count)
system.cpu.commit.branches                     216052                       # Number of branches committed (Count)
system.cpu.commit.vectorInstructions            10338                       # Number of committed Vector instructions. (Count)
system.cpu.commit.floating                          0                       # Number of committed floating point instructions. (Count)
system.cpu.commit.integer                      980753                       # Number of committed integer instructions. (Count)
system.cpu.commit.functionCalls                 11108                       # Number of function calls committed. (Count)
system.cpu.commit.committedInstType_0::No_OpClass          184      0.02%      0.02% # Class of committed instruction (Count)
system.cpu.commit.committedInstType_0::IntAlu       796984     71.57%     71.59% # Class of committed instruction (Count)
system.cpu.commit.committedInstType_0::IntMult         3693      0.33%     71.92% # Class of committed instruction (Count)
system.cpu.commit.committedInstType_0::IntDiv          912      0.08%     72.00% # Class of committed instruction (Count)
system.cpu.commit.committedInstType_0::FloatAdd          438      0.04%     72.04% # Class of committed instruction (Count)
system.cpu.commit.committedInstType_0::FloatCmp            6      0.00%     72.04% # Class of committed instruction (Count)
system.cpu.commit.committedInstType_0::FloatCvt            0      0.00%     72.04% # Class of committed instruction (Count)
system.cpu.commit.committedInstType_0::FloatMult           15      0.00%     72.05% # Class of committed instruction (Count)
system.cpu.commit.committedInstType_0::FloatMultAcc           21      0.00%     72.05% # Class of committed instruction (Count)
system.cpu.commit.committedInstType_0::FloatDiv            9      0.00%     72.05% # Class of committed instruction (Count)
system.cpu.commit.committedInstType_0::FloatMisc         1629      0.15%     72.19% # Class of committed instruction (Count)
system.cpu.commit.committedInstType_0::FloatSqrt            0      0.00%     72.19% # Class of committed instruction (Count)
system.cpu.commit.committedInstType_0::SimdAdd          429      0.04%     72.23% # Class of committed instruction (Count)
system.cpu.commit.committedInstType_0::SimdAddAcc            0      0.00%     72.23% # Class of committed instruction (Count)
system.cpu.commit.committedInstType_0::SimdAlu          645      0.06%     72.29% # Class of committed instruction (Count)
system.cpu.commit.committedInstType_0::SimdCmp          594      0.05%     72.34% # Class of committed instruction (Count)
system.cpu.commit.committedInstType_0::SimdCvt            0      0.00%     72.34% # Class of committed instruction (Count)
system.cpu.commit.committedInstType_0::SimdMisc          524      0.05%     72.39% # Class of committed instruction (Count)
system.cpu.commit.committedInstType_0::SimdMult            0      0.00%     72.39% # Class of committed instruction (Count)
system.cpu.commit.committedInstType_0::SimdMultAcc            0      0.00%     72.39% # Class of committed instruction (Count)
system.cpu.commit.committedInstType_0::SimdShift            0      0.00%     72.39% # Class of committed instruction (Count)
system.cpu.commit.committedInstType_0::SimdShiftAcc            0      0.00%     72.39% # Class of committed instruction (Count)
system.cpu.commit.committedInstType_0::SimdDiv            0      0.00%     72.39% # Class of committed instruction (Count)
system.cpu.commit.committedInstType_0::SimdSqrt            0      0.00%     72.39% # Class of committed instruction (Count)
system.cpu.commit.committedInstType_0::SimdFloatAdd            0      0.00%     72.39% # Class of committed instruction (Count)
system.cpu.commit.committedInstType_0::SimdFloatAlu            0      0.00%     72.39% # Class of committed instruction (Count)
system.cpu.commit.committedInstType_0::SimdFloatCmp            0      0.00%     72.39% # Class of committed instruction (Count)
system.cpu.commit.committedInstType_0::SimdFloatCvt            0      0.00%     72.39% # Class of committed instruction (Count)
system.cpu.commit.committedInstType_0::SimdFloatDiv            0      0.00%     72.39% # Class of committed instruction (Count)
system.cpu.commit.committedInstType_0::SimdFloatMisc            0      0.00%     72.39% # Class of committed instruction (Count)
system.cpu.commit.committedInstType_0::SimdFloatMult            0      0.00%     72.39% # Class of committed instruction (Count)
system.cpu.commit.committedInstType_0::SimdFloatMultAcc            0      0.00%     72.39% # Class of committed instruction (Count)
system.cpu.commit.committedInstType_0::SimdFloatSqrt            0      0.00%     72.39% # Class of committed instruction (Count)
system.cpu.commit.committedInstType_0::SimdReduceAdd            0      0.00%     72.39% # Class of committed instruction (Count)
system.cpu.commit.committedInstType_0::SimdReduceAlu            0      0.00%     72.39% # Class of committed instruction (Count)
system.cpu.commit.committedInstType_0::SimdReduceCmp            0      0.00%     72.39% # Class of committed instruction (Count)
system.cpu.commit.committedInstType_0::SimdFloatReduceAdd            0      0.00%     72.39% # Class of committed instruction (Count)
system.cpu.commit.committedInstType_0::SimdFloatReduceCmp            0      0.00%     72.39% # Class of committed instruction (Count)
system.cpu.commit.committedInstType_0::SimdAes            0      0.00%     72.39% # Class of committed instruction (Count)
system.cpu.commit.committedInstType_0::SimdAesMix            0      0.00%     72.39% # Class of committed instruction (Count)
system.cpu.commit.committedInstType_0::SimdSha1Hash            0      0.00%     72.39% # Class of committed instruction (Count)
system.cpu.commit.committedInstType_0::SimdSha1Hash2            0      0.00%     72.39% # Class of committed instruction (Count)
system.cpu.commit.committedInstType_0::SimdSha256Hash            0      0.00%     72.39% # Class of committed instruction (Count)
system.cpu.commit.committedInstType_0::SimdSha256Hash2            0      0.00%     72.39% # Class of committed instruction (Count)
system.cpu.commit.committedInstType_0::SimdShaSigma2            0      0.00%     72.39% # Class of committed instruction (Count)
system.cpu.commit.committedInstType_0::SimdShaSigma3            0      0.00%     72.39% # Class of committed instruction (Count)
system.cpu.commit.committedInstType_0::SimdPredAlu            0      0.00%     72.39% # Class of committed instruction (Count)
system.cpu.commit.committedInstType_0::MemRead       176932     15.89%     88.28% # Class of committed instruction (Count)
system.cpu.commit.committedInstType_0::MemWrite       130490     11.72%    100.00% # Class of committed instruction (Count)
system.cpu.commit.committedInstType_0::FloatMemRead            0      0.00%    100.00% # Class of committed instruction (Count)
system.cpu.commit.committedInstType_0::FloatMemWrite            0      0.00%    100.00% # Class of committed instruction (Count)
system.cpu.commit.committedInstType_0::IprAccess            0      0.00%    100.00% # Class of committed instruction (Count)
system.cpu.commit.committedInstType_0::InstPrefetch            0      0.00%    100.00% # Class of committed instruction (Count)
system.cpu.commit.committedInstType_0::total      1113505                       # Class of committed instruction (Count)
system.cpu.commit.commitEligibleSamples        157053                       # number cycles where commit BW limit reached (Cycle)
system.cpu.dcache.demandHits::cpu.data         298421                       # number of demand (read+write) hits (Count)
system.cpu.dcache.demandHits::total            298421                       # number of demand (read+write) hits (Count)
system.cpu.dcache.overallHits::cpu.data        299670                       # number of overall hits (Count)
system.cpu.dcache.overallHits::total           299670                       # number of overall hits (Count)
system.cpu.dcache.demandMisses::cpu.data         2383                       # number of demand (read+write) misses (Count)
system.cpu.dcache.demandMisses::total            2383                       # number of demand (read+write) misses (Count)
system.cpu.dcache.overallMisses::cpu.data         2386                       # number of overall misses (Count)
system.cpu.dcache.overallMisses::total           2386                       # number of overall misses (Count)
system.cpu.dcache.demandMissLatency::cpu.data    184807957                       # number of demand (read+write) miss ticks (Tick)
system.cpu.dcache.demandMissLatency::total    184807957                       # number of demand (read+write) miss ticks (Tick)
system.cpu.dcache.overallMissLatency::cpu.data    184807957                       # number of overall miss ticks (Tick)
system.cpu.dcache.overallMissLatency::total    184807957                       # number of overall miss ticks (Tick)
system.cpu.dcache.demandAccesses::cpu.data       300804                       # number of demand (read+write) accesses (Count)
system.cpu.dcache.demandAccesses::total        300804                       # number of demand (read+write) accesses (Count)
system.cpu.dcache.overallAccesses::cpu.data       302056                       # number of overall (read+write) accesses (Count)
system.cpu.dcache.overallAccesses::total       302056                       # number of overall (read+write) accesses (Count)
system.cpu.dcache.demandMissRate::cpu.data     0.007922                       # miss rate for demand accesses (Ratio)
system.cpu.dcache.demandMissRate::total      0.007922                       # miss rate for demand accesses (Ratio)
system.cpu.dcache.overallMissRate::cpu.data     0.007899                       # miss rate for overall accesses (Ratio)
system.cpu.dcache.overallMissRate::total     0.007899                       # miss rate for overall accesses (Ratio)
system.cpu.dcache.demandAvgMissLatency::cpu.data 77552.646664                       # average overall miss latency in ticks ((Tick/Count))
system.cpu.dcache.demandAvgMissLatency::total 77552.646664                       # average overall miss latency in ticks ((Tick/Count))
system.cpu.dcache.overallAvgMissLatency::cpu.data 77455.137049                       # average overall miss latency ((Tick/Count))
system.cpu.dcache.overallAvgMissLatency::total 77455.137049                       # average overall miss latency ((Tick/Count))
system.cpu.dcache.blockedCycles::no_mshrs         3205                       # number of cycles access was blocked (Cycle)
system.cpu.dcache.blockedCycles::no_targets            0                       # number of cycles access was blocked (Cycle)
system.cpu.dcache.blockedCauses::no_mshrs           64                       # number of times access was blocked (Count)
system.cpu.dcache.blockedCauses::no_targets            0                       # number of times access was blocked (Count)
system.cpu.dcache.avgBlocked::no_mshrs      50.078125                       # average number of cycles each access was blocked ((Cycle/Count))
system.cpu.dcache.avgBlocked::no_targets          nan                       # average number of cycles each access was blocked ((Cycle/Count))
system.cpu.dcache.writebacks::writebacks           43                       # number of writebacks (Count)
system.cpu.dcache.writebacks::total                43                       # number of writebacks (Count)
system.cpu.dcache.demandMshrHits::cpu.data         1742                       # number of demand (read+write) MSHR hits (Count)
system.cpu.dcache.demandMshrHits::total          1742                       # number of demand (read+write) MSHR hits (Count)
system.cpu.dcache.overallMshrHits::cpu.data         1742                       # number of overall MSHR hits (Count)
system.cpu.dcache.overallMshrHits::total         1742                       # number of overall MSHR hits (Count)
system.cpu.dcache.demandMshrMisses::cpu.data          641                       # number of demand (read+write) MSHR misses (Count)
system.cpu.dcache.demandMshrMisses::total          641                       # number of demand (read+write) MSHR misses (Count)
system.cpu.dcache.overallMshrMisses::cpu.data          644                       # number of overall MSHR misses (Count)
system.cpu.dcache.overallMshrMisses::total          644                       # number of overall MSHR misses (Count)
system.cpu.dcache.demandMshrMissLatency::cpu.data     52286994                       # number of demand (read+write) MSHR miss ticks (Tick)
system.cpu.dcache.demandMshrMissLatency::total     52286994                       # number of demand (read+write) MSHR miss ticks (Tick)
system.cpu.dcache.overallMshrMissLatency::cpu.data     52519494                       # number of overall MSHR miss ticks (Tick)
system.cpu.dcache.overallMshrMissLatency::total     52519494                       # number of overall MSHR miss ticks (Tick)
system.cpu.dcache.demandMshrMissRate::cpu.data     0.002131                       # mshr miss ratio for demand accesses (Ratio)
system.cpu.dcache.demandMshrMissRate::total     0.002131                       # mshr miss ratio for demand accesses (Ratio)
system.cpu.dcache.overallMshrMissRate::cpu.data     0.002132                       # mshr miss ratio for overall accesses (Ratio)
system.cpu.dcache.overallMshrMissRate::total     0.002132                       # mshr miss ratio for overall accesses (Ratio)
system.cpu.dcache.demandAvgMshrMissLatency::cpu.data 81570.973479                       # average overall mshr miss latency ((Tick/Count))
system.cpu.dcache.demandAvgMshrMissLatency::total 81570.973479                       # average overall mshr miss latency ((Tick/Count))
system.cpu.dcache.overallAvgMshrMissLatency::cpu.data 81552.009317                       # average overall mshr miss latency ((Tick/Count))
system.cpu.dcache.overallAvgMshrMissLatency::total 81552.009317                       # average overall mshr miss latency ((Tick/Count))
system.cpu.dcache.replacements                     59                       # number of replacements (Count)
system.cpu.dcache.LoadLockedReq.hits::cpu.data          484                       # number of LoadLockedReq hits (Count)
system.cpu.dcache.LoadLockedReq.hits::total          484                       # number of LoadLockedReq hits (Count)
system.cpu.dcache.LoadLockedReq.accesses::cpu.data          484                       # number of LoadLockedReq accesses(hits+misses) (Count)
system.cpu.dcache.LoadLockedReq.accesses::total          484                       # number of LoadLockedReq accesses(hits+misses) (Count)
system.cpu.dcache.ReadReq.hits::cpu.data       170088                       # number of ReadReq hits (Count)
system.cpu.dcache.ReadReq.hits::total          170088                       # number of ReadReq hits (Count)
system.cpu.dcache.ReadReq.misses::cpu.data          703                       # number of ReadReq misses (Count)
system.cpu.dcache.ReadReq.misses::total           703                       # number of ReadReq misses (Count)
system.cpu.dcache.ReadReq.missLatency::cpu.data     54909500                       # number of ReadReq miss ticks (Tick)
system.cpu.dcache.ReadReq.missLatency::total     54909500                       # number of ReadReq miss ticks (Tick)
system.cpu.dcache.ReadReq.accesses::cpu.data       170791                       # number of ReadReq accesses(hits+misses) (Count)
system.cpu.dcache.ReadReq.accesses::total       170791                       # number of ReadReq accesses(hits+misses) (Count)
system.cpu.dcache.ReadReq.missRate::cpu.data     0.004116                       # miss rate for ReadReq accesses (Ratio)
system.cpu.dcache.ReadReq.missRate::total     0.004116                       # miss rate for ReadReq accesses (Ratio)
system.cpu.dcache.ReadReq.avgMissLatency::cpu.data 78107.396871                       # average ReadReq miss latency ((Tick/Count))
system.cpu.dcache.ReadReq.avgMissLatency::total 78107.396871                       # average ReadReq miss latency ((Tick/Count))
system.cpu.dcache.ReadReq.mshrHits::cpu.data          464                       # number of ReadReq MSHR hits (Count)
system.cpu.dcache.ReadReq.mshrHits::total          464                       # number of ReadReq MSHR hits (Count)
system.cpu.dcache.ReadReq.mshrMisses::cpu.data          239                       # number of ReadReq MSHR misses (Count)
system.cpu.dcache.ReadReq.mshrMisses::total          239                       # number of ReadReq MSHR misses (Count)
system.cpu.dcache.ReadReq.mshrMissLatency::cpu.data     19805000                       # number of ReadReq MSHR miss ticks (Tick)
system.cpu.dcache.ReadReq.mshrMissLatency::total     19805000                       # number of ReadReq MSHR miss ticks (Tick)
system.cpu.dcache.ReadReq.mshrMissRate::cpu.data     0.001399                       # mshr miss rate for ReadReq accesses (Ratio)
system.cpu.dcache.ReadReq.mshrMissRate::total     0.001399                       # mshr miss rate for ReadReq accesses (Ratio)
system.cpu.dcache.ReadReq.avgMshrMissLatency::cpu.data 82866.108787                       # average ReadReq mshr miss latency ((Tick/Count))
system.cpu.dcache.ReadReq.avgMshrMissLatency::total 82866.108787                       # average ReadReq mshr miss latency ((Tick/Count))
system.cpu.dcache.SoftPFReq.hits::cpu.data         1249                       # number of SoftPFReq hits (Count)
system.cpu.dcache.SoftPFReq.hits::total          1249                       # number of SoftPFReq hits (Count)
system.cpu.dcache.SoftPFReq.misses::cpu.data            3                       # number of SoftPFReq misses (Count)
system.cpu.dcache.SoftPFReq.misses::total            3                       # number of SoftPFReq misses (Count)
system.cpu.dcache.SoftPFReq.accesses::cpu.data         1252                       # number of SoftPFReq accesses(hits+misses) (Count)
system.cpu.dcache.SoftPFReq.accesses::total         1252                       # number of SoftPFReq accesses(hits+misses) (Count)
system.cpu.dcache.SoftPFReq.missRate::cpu.data     0.002396                       # miss rate for SoftPFReq accesses (Ratio)
system.cpu.dcache.SoftPFReq.missRate::total     0.002396                       # miss rate for SoftPFReq accesses (Ratio)
system.cpu.dcache.SoftPFReq.mshrMisses::cpu.data            3                       # number of SoftPFReq MSHR misses (Count)
system.cpu.dcache.SoftPFReq.mshrMisses::total            3                       # number of SoftPFReq MSHR misses (Count)
system.cpu.dcache.SoftPFReq.mshrMissLatency::cpu.data       232500                       # number of SoftPFReq MSHR miss ticks (Tick)
system.cpu.dcache.SoftPFReq.mshrMissLatency::total       232500                       # number of SoftPFReq MSHR miss ticks (Tick)
system.cpu.dcache.SoftPFReq.mshrMissRate::cpu.data     0.002396                       # mshr miss rate for SoftPFReq accesses (Ratio)
system.cpu.dcache.SoftPFReq.mshrMissRate::total     0.002396                       # mshr miss rate for SoftPFReq accesses (Ratio)
system.cpu.dcache.SoftPFReq.avgMshrMissLatency::cpu.data        77500                       # average SoftPFReq mshr miss latency ((Tick/Count))
system.cpu.dcache.SoftPFReq.avgMshrMissLatency::total        77500                       # average SoftPFReq mshr miss latency ((Tick/Count))
system.cpu.dcache.StoreCondReq.hits::cpu.data          475                       # number of StoreCondReq hits (Count)
system.cpu.dcache.StoreCondReq.hits::total          475                       # number of StoreCondReq hits (Count)
system.cpu.dcache.StoreCondReq.accesses::cpu.data          475                       # number of StoreCondReq accesses(hits+misses) (Count)
system.cpu.dcache.StoreCondReq.accesses::total          475                       # number of StoreCondReq accesses(hits+misses) (Count)
system.cpu.dcache.WriteLineReq.hits::cpu.data            7                       # number of WriteLineReq hits (Count)
system.cpu.dcache.WriteLineReq.hits::total            7                       # number of WriteLineReq hits (Count)
system.cpu.dcache.WriteLineReq.misses::cpu.data            8                       # number of WriteLineReq misses (Count)
system.cpu.dcache.WriteLineReq.misses::total            8                       # number of WriteLineReq misses (Count)
system.cpu.dcache.WriteLineReq.missLatency::cpu.data       253498                       # number of WriteLineReq miss ticks (Tick)
system.cpu.dcache.WriteLineReq.missLatency::total       253498                       # number of WriteLineReq miss ticks (Tick)
system.cpu.dcache.WriteLineReq.accesses::cpu.data           15                       # number of WriteLineReq accesses(hits+misses) (Count)
system.cpu.dcache.WriteLineReq.accesses::total           15                       # number of WriteLineReq accesses(hits+misses) (Count)
system.cpu.dcache.WriteLineReq.missRate::cpu.data     0.533333                       # miss rate for WriteLineReq accesses (Ratio)
system.cpu.dcache.WriteLineReq.missRate::total     0.533333                       # miss rate for WriteLineReq accesses (Ratio)
system.cpu.dcache.WriteLineReq.avgMissLatency::cpu.data 31687.250000                       # average WriteLineReq miss latency ((Tick/Count))
system.cpu.dcache.WriteLineReq.avgMissLatency::total 31687.250000                       # average WriteLineReq miss latency ((Tick/Count))
system.cpu.dcache.WriteLineReq.mshrMisses::cpu.data            8                       # number of WriteLineReq MSHR misses (Count)
system.cpu.dcache.WriteLineReq.mshrMisses::total            8                       # number of WriteLineReq MSHR misses (Count)
system.cpu.dcache.WriteLineReq.mshrMissLatency::cpu.data       245498                       # number of WriteLineReq MSHR miss ticks (Tick)
system.cpu.dcache.WriteLineReq.mshrMissLatency::total       245498                       # number of WriteLineReq MSHR miss ticks (Tick)
system.cpu.dcache.WriteLineReq.mshrMissRate::cpu.data     0.533333                       # mshr miss rate for WriteLineReq accesses (Ratio)
system.cpu.dcache.WriteLineReq.mshrMissRate::total     0.533333                       # mshr miss rate for WriteLineReq accesses (Ratio)
system.cpu.dcache.WriteLineReq.avgMshrMissLatency::cpu.data 30687.250000                       # average WriteLineReq mshr miss latency ((Tick/Count))
system.cpu.dcache.WriteLineReq.avgMshrMissLatency::total 30687.250000                       # average WriteLineReq mshr miss latency ((Tick/Count))
system.cpu.dcache.WriteReq.hits::cpu.data       128326                       # number of WriteReq hits (Count)
system.cpu.dcache.WriteReq.hits::total         128326                       # number of WriteReq hits (Count)
system.cpu.dcache.WriteReq.misses::cpu.data         1672                       # number of WriteReq misses (Count)
system.cpu.dcache.WriteReq.misses::total         1672                       # number of WriteReq misses (Count)
system.cpu.dcache.WriteReq.missLatency::cpu.data    129644959                       # number of WriteReq miss ticks (Tick)
system.cpu.dcache.WriteReq.missLatency::total    129644959                       # number of WriteReq miss ticks (Tick)
system.cpu.dcache.WriteReq.accesses::cpu.data       129998                       # number of WriteReq accesses(hits+misses) (Count)
system.cpu.dcache.WriteReq.accesses::total       129998                       # number of WriteReq accesses(hits+misses) (Count)
system.cpu.dcache.WriteReq.missRate::cpu.data     0.012862                       # miss rate for WriteReq accesses (Ratio)
system.cpu.dcache.WriteReq.missRate::total     0.012862                       # miss rate for WriteReq accesses (Ratio)
system.cpu.dcache.WriteReq.avgMissLatency::cpu.data 77538.851077                       # average WriteReq miss latency ((Tick/Count))
system.cpu.dcache.WriteReq.avgMissLatency::total 77538.851077                       # average WriteReq miss latency ((Tick/Count))
system.cpu.dcache.WriteReq.mshrHits::cpu.data         1278                       # number of WriteReq MSHR hits (Count)
system.cpu.dcache.WriteReq.mshrHits::total         1278                       # number of WriteReq MSHR hits (Count)
system.cpu.dcache.WriteReq.mshrMisses::cpu.data          394                       # number of WriteReq MSHR misses (Count)
system.cpu.dcache.WriteReq.mshrMisses::total          394                       # number of WriteReq MSHR misses (Count)
system.cpu.dcache.WriteReq.mshrMissLatency::cpu.data     32236496                       # number of WriteReq MSHR miss ticks (Tick)
system.cpu.dcache.WriteReq.mshrMissLatency::total     32236496                       # number of WriteReq MSHR miss ticks (Tick)
system.cpu.dcache.WriteReq.mshrMissRate::cpu.data     0.003031                       # mshr miss rate for WriteReq accesses (Ratio)
system.cpu.dcache.WriteReq.mshrMissRate::total     0.003031                       # mshr miss rate for WriteReq accesses (Ratio)
system.cpu.dcache.WriteReq.avgMshrMissLatency::cpu.data 81818.517766                       # average WriteReq mshr miss latency ((Tick/Count))
system.cpu.dcache.WriteReq.avgMshrMissLatency::total 81818.517766                       # average WriteReq mshr miss latency ((Tick/Count))
system.cpu.dcache.power_state.pwrStateResidencyTicks::UNDEFINED    473236500                       # Cumulative time (in ticks) in various power states (Tick)
system.cpu.dcache.tags.tagsInUse           420.944955                       # Average ticks per tags in use ((Tick/Count))
system.cpu.dcache.tags.totalRefs               301273                       # Total number of references to valid blocks. (Count)
system.cpu.dcache.tags.sampledRefs                644                       # Sample count of references to valid blocks. (Count)
system.cpu.dcache.tags.avgRefs             467.815217                       # Average number of references to valid blocks. ((Count/Count))
system.cpu.dcache.tags.warmupTick              176500                       # The tick when the warmup percentage was hit. (Tick)
system.cpu.dcache.tags.occupancies::cpu.data   420.944955                       # Average occupied blocks per tick, per requestor ((Count/Tick))
system.cpu.dcache.tags.avgOccs::cpu.data     0.411079                       # Average percentage of cache occupancy ((Ratio/Tick))
system.cpu.dcache.tags.avgOccs::total        0.411079                       # Average percentage of cache occupancy ((Ratio/Tick))
system.cpu.dcache.tags.occupanciesTaskId::1024          585                       # Occupied blocks per task id (Count)
system.cpu.dcache.tags.ageTaskId_1024::0            8                       # Occupied blocks per task id, per block age (Count)
system.cpu.dcache.tags.ageTaskId_1024::1           66                       # Occupied blocks per task id, per block age (Count)
system.cpu.dcache.tags.ageTaskId_1024::2          511                       # Occupied blocks per task id, per block age (Count)
system.cpu.dcache.tags.ratioOccsTaskId::1024     0.571289                       # Ratio of occupied blocks and all blocks, per task id (Ratio)
system.cpu.dcache.tags.tagAccesses             606674                       # Number of tag accesses (Count)
system.cpu.dcache.tags.dataAccesses            606674                       # Number of data accesses (Count)
system.cpu.dcache.tags.power_state.pwrStateResidencyTicks::UNDEFINED    473236500                       # Cumulative time (in ticks) in various power states (Tick)
system.cpu.decode.idleCycles                   377875                       # Number of cycles decode is idle (Cycle)
system.cpu.decode.blockedCycles                100728                       # Number of cycles decode is blocked (Cycle)
system.cpu.decode.runCycles                    362152                       # Number of cycles decode is running (Cycle)
system.cpu.decode.unblockCycles                  6153                       # Number of cycles decode is unblocking (Cycle)
system.cpu.decode.squashCycles                   4118                       # Number of cycles decode is squashing (Cycle)
system.cpu.decode.branchResolved               109264                       # Number of times decode resolved a branch (Count)
system.cpu.decode.branchMispred                   457                       # Number of times decode detected a branch misprediction (Count)
system.cpu.decode.decodedInsts                1189999                       # Number of instructions handled by decode (Count)
system.cpu.decode.squashedInsts                  1208                       # Number of squashed instructions handled by decode (Count)
system.cpu.fetch.icacheStallCycles             406764                       # Number of cycles fetch is stalled on an Icache miss (Cycle)
system.cpu.fetch.insts                        1085379                       # Number of instructions fetch has processed (Count)
system.cpu.fetch.branches                      234683                       # Number of branches that fetch encountered (Count)
system.cpu.fetch.predictedBranches             124852                       # Number of branches that fetch has predicted taken (Count)
system.cpu.fetch.cycles                        439680                       # Number of cycles fetch has run and was not squashing or blocked (Cycle)
system.cpu.fetch.squashCycles                    9132                       # Number of cycles fetch has spent squashing (Cycle)
system.cpu.fetch.miscStallCycles                    1                       # Number of cycles fetch has spent waiting on interrupts, or bad addresses, or out of MSHRs (Cycle)
system.cpu.fetch.icacheWaitRetryStallCycles           15                       # Number of stall cycles due to full MSHR (Cycle)
system.cpu.fetch.cacheLines                    182546                       # Number of cache lines fetched (Count)
system.cpu.fetch.icacheSquashes                  2208                       # Number of outstanding Icache misses that were squashed (Count)
system.cpu.fetch.nisnDist::samples             851026                       # Number of instructions fetched each cycle (Total) (Count)
system.cpu.fetch.nisnDist::mean              1.418361                       # Number of instructions fetched each cycle (Total) (Count)
system.cpu.fetch.nisnDist::stdev             1.752643                       # Number of instructions fetched each cycle (Total) (Count)
system.cpu.fetch.nisnDist::underflows               0      0.00%      0.00% # Number of instructions fetched each cycle (Total) (Count)
system.cpu.fetch.nisnDist::0                   470879     55.33%     55.33% # Number of instructions fetched each cycle (Total) (Count)
system.cpu.fetch.nisnDist::1                    55827      6.56%     61.89% # Number of instructions fetched each cycle (Total) (Count)
system.cpu.fetch.nisnDist::2                    51780      6.08%     67.98% # Number of instructions fetched each cycle (Total) (Count)
system.cpu.fetch.nisnDist::3                    42485      4.99%     72.97% # Number of instructions fetched each cycle (Total) (Count)
system.cpu.fetch.nisnDist::4                   230055     27.03%    100.00% # Number of instructions fetched each cycle (Total) (Count)
system.cpu.fetch.nisnDist::overflows                0      0.00%    100.00% # Number of instructions fetched each cycle (Total) (Count)
system.cpu.fetch.nisnDist::min_value                0                       # Number of instructions fetched each cycle (Total) (Count)
system.cpu.fetch.nisnDist::max_value                4                       # Number of instructions fetched each cycle (Total) (Count)
system.cpu.fetch.nisnDist::total               851026                       # Number of instructions fetched each cycle (Total) (Count)
system.cpu.fetch.branchRate                  0.247955                       # Number of branch fetches per cycle (Ratio)
system.cpu.fetch.rate                        1.146761                       # Number of inst fetches per cycle ((Count/Cycle))
system.cpu.icache.demandHits::cpu.inst         171607                       # number of demand (read+write) hits (Count)
system.cpu.icache.demandHits::total            171607                       # number of demand (read+write) hits (Count)
system.cpu.icache.overallHits::cpu.inst        171607                       # number of overall hits (Count)
system.cpu.icache.overallHits::total           171607                       # number of overall hits (Count)
system.cpu.icache.demandMisses::cpu.inst        10939                       # number of demand (read+write) misses (Count)
system.cpu.icache.demandMisses::total           10939                       # number of demand (read+write) misses (Count)
system.cpu.icache.overallMisses::cpu.inst        10939                       # number of overall misses (Count)
system.cpu.icache.overallMisses::total          10939                       # number of overall misses (Count)
system.cpu.icache.demandMissLatency::cpu.inst    206365000                       # number of demand (read+write) miss ticks (Tick)
system.cpu.icache.demandMissLatency::total    206365000                       # number of demand (read+write) miss ticks (Tick)
system.cpu.icache.overallMissLatency::cpu.inst    206365000                       # number of overall miss ticks (Tick)
system.cpu.icache.overallMissLatency::total    206365000                       # number of overall miss ticks (Tick)
system.cpu.icache.demandAccesses::cpu.inst       182546                       # number of demand (read+write) accesses (Count)
system.cpu.icache.demandAccesses::total        182546                       # number of demand (read+write) accesses (Count)
system.cpu.icache.overallAccesses::cpu.inst       182546                       # number of overall (read+write) accesses (Count)
system.cpu.icache.overallAccesses::total       182546                       # number of overall (read+write) accesses (Count)
system.cpu.icache.demandMissRate::cpu.inst     0.059925                       # miss rate for demand accesses (Ratio)
system.cpu.icache.demandMissRate::total      0.059925                       # miss rate for demand accesses (Ratio)
system.cpu.icache.overallMissRate::cpu.inst     0.059925                       # miss rate for overall accesses (Ratio)
system.cpu.icache.overallMissRate::total     0.059925                       # miss rate for overall accesses (Ratio)
system.cpu.icache.demandAvgMissLatency::cpu.inst 18865.069933                       # average overall miss latency in ticks ((Tick/Count))
system.cpu.icache.demandAvgMissLatency::total 18865.069933                       # average overall miss latency in ticks ((Tick/Count))
system.cpu.icache.overallAvgMissLatency::cpu.inst 18865.069933                       # average overall miss latency ((Tick/Count))
system.cpu.icache.overallAvgMissLatency::total 18865.069933                       # average overall miss latency ((Tick/Count))
system.cpu.icache.blockedCycles::no_mshrs          357                       # number of cycles access was blocked (Cycle)
system.cpu.icache.blockedCycles::no_targets            0                       # number of cycles access was blocked (Cycle)
system.cpu.icache.blockedCauses::no_mshrs            7                       # number of times access was blocked (Count)
system.cpu.icache.blockedCauses::no_targets            0                       # number of times access was blocked (Count)
system.cpu.icache.avgBlocked::no_mshrs             51                       # average number of cycles each access was blocked ((Cycle/Count))
system.cpu.icache.avgBlocked::no_targets          nan                       # average number of cycles each access was blocked ((Cycle/Count))
system.cpu.icache.writebacks::writebacks        10345                       # number of writebacks (Count)
system.cpu.icache.writebacks::total             10345                       # number of writebacks (Count)
system.cpu.icache.demandMshrHits::cpu.inst          338                       # number of demand (read+write) MSHR hits (Count)
system.cpu.icache.demandMshrHits::total           338                       # number of demand (read+write) MSHR hits (Count)
system.cpu.icache.overallMshrHits::cpu.inst          338                       # number of overall MSHR hits (Count)
system.cpu.icache.overallMshrHits::total          338                       # number of overall MSHR hits (Count)
system.cpu.icache.demandMshrMisses::cpu.inst        10601                       # number of demand (read+write) MSHR misses (Count)
system.cpu.icache.demandMshrMisses::total        10601                       # number of demand (read+write) MSHR misses (Count)
system.cpu.icache.overallMshrMisses::cpu.inst        10601                       # number of overall MSHR misses (Count)
system.cpu.icache.overallMshrMisses::total        10601                       # number of overall MSHR misses (Count)
system.cpu.icache.demandMshrMissLatency::cpu.inst    181392500                       # number of demand (read+write) MSHR miss ticks (Tick)
system.cpu.icache.demandMshrMissLatency::total    181392500                       # number of demand (read+write) MSHR miss ticks (Tick)
system.cpu.icache.overallMshrMissLatency::cpu.inst    181392500                       # number of overall MSHR miss ticks (Tick)
system.cpu.icache.overallMshrMissLatency::total    181392500                       # number of overall MSHR miss ticks (Tick)
system.cpu.icache.demandMshrMissRate::cpu.inst     0.058073                       # mshr miss ratio for demand accesses (Ratio)
system.cpu.icache.demandMshrMissRate::total     0.058073                       # mshr miss ratio for demand accesses (Ratio)
system.cpu.icache.overallMshrMissRate::cpu.inst     0.058073                       # mshr miss ratio for overall accesses (Ratio)
system.cpu.icache.overallMshrMissRate::total     0.058073                       # mshr miss ratio for overall accesses (Ratio)
system.cpu.icache.demandAvgMshrMissLatency::cpu.inst 17110.885765                       # average overall mshr miss latency ((Tick/Count))
system.cpu.icache.demandAvgMshrMissLatency::total 17110.885765                       # average overall mshr miss latency ((Tick/Count))
system.cpu.icache.overallAvgMshrMissLatency::cpu.inst 17110.885765                       # average overall mshr miss latency ((Tick/Count))
system.cpu.icache.overallAvgMshrMissLatency::total 17110.885765                       # average overall mshr miss latency ((Tick/Count))
system.cpu.icache.replacements                  10345                       # number of replacements (Count)
system.cpu.icache.ReadReq.hits::cpu.inst       171607                       # number of ReadReq hits (Count)
system.cpu.icache.ReadReq.hits::total          171607                       # number of ReadReq hits (Count)
system.cpu.icache.ReadReq.misses::cpu.inst        10939                       # number of ReadReq misses (Count)
system.cpu.icache.ReadReq.misses::total         10939                       # number of ReadReq misses (Count)
system.cpu.icache.ReadReq.missLatency::cpu.inst    206365000                       # number of ReadReq miss ticks (Tick)
system.cpu.icache.ReadReq.missLatency::total    206365000                       # number of ReadReq miss ticks (Tick)
system.cpu.icache.ReadReq.accesses::cpu.inst       182546                       # number of ReadReq accesses(hits+misses) (Count)
system.cpu.icache.ReadReq.accesses::total       182546                       # number of ReadReq accesses(hits+misses) (Count)
system.cpu.icache.ReadReq.missRate::cpu.inst     0.059925                       # miss rate for ReadReq accesses (Ratio)
system.cpu.icache.ReadReq.missRate::total     0.059925                       # miss rate for ReadReq accesses (Ratio)
system.cpu.icache.ReadReq.avgMissLatency::cpu.inst 18865.069933                       # average ReadReq miss latency ((Tick/Count))
system.cpu.icache.ReadReq.avgMissLatency::total 18865.069933                       # average ReadReq miss latency ((Tick/Count))
system.cpu.icache.ReadReq.mshrHits::cpu.inst          338                       # number of ReadReq MSHR hits (Count)
system.cpu.icache.ReadReq.mshrHits::total          338                       # number of ReadReq MSHR hits (Count)
system.cpu.icache.ReadReq.mshrMisses::cpu.inst        10601                       # number of ReadReq MSHR misses (Count)
system.cpu.icache.ReadReq.mshrMisses::total        10601                       # number of ReadReq MSHR misses (Count)
system.cpu.icache.ReadReq.mshrMissLatency::cpu.inst    181392500                       # number of ReadReq MSHR miss ticks (Tick)
system.cpu.icache.ReadReq.mshrMissLatency::total    181392500                       # number of ReadReq MSHR miss ticks (Tick)
system.cpu.icache.ReadReq.mshrMissRate::cpu.inst     0.058073                       # mshr miss rate for ReadReq accesses (Ratio)
system.cpu.icache.ReadReq.mshrMissRate::total     0.058073                       # mshr miss rate for ReadReq accesses (Ratio)
system.cpu.icache.ReadReq.avgMshrMissLatency::cpu.inst 17110.885765                       # average ReadReq mshr miss latency ((Tick/Count))
system.cpu.icache.ReadReq.avgMshrMissLatency::total 17110.885765                       # average ReadReq mshr miss latency ((Tick/Count))
system.cpu.icache.power_state.pwrStateResidencyTicks::UNDEFINED    473236500                       # Cumulative time (in ticks) in various power states (Tick)
system.cpu.icache.tags.tagsInUse           249.684974                       # Average ticks per tags in use ((Tick/Count))
system.cpu.icache.tags.totalRefs               182208                       # Total number of references to valid blocks. (Count)
system.cpu.icache.tags.sampledRefs              10601                       # Sample count of references to valid blocks. (Count)
system.cpu.icache.tags.avgRefs              17.187812                       # Average number of references to valid blocks. ((Count/Count))
system.cpu.icache.tags.warmupTick               87500                       # The tick when the warmup percentage was hit. (Tick)
system.cpu.icache.tags.occupancies::cpu.inst   249.684974                       # Average occupied blocks per tick, per requestor ((Count/Tick))
system.cpu.icache.tags.avgOccs::cpu.inst     0.975332                       # Average percentage of cache occupancy ((Ratio/Tick))
system.cpu.icache.tags.avgOccs::total        0.975332                       # Average percentage of cache occupancy ((Ratio/Tick))
system.cpu.icache.tags.occupanciesTaskId::1024          256                       # Occupied blocks per task id (Count)
system.cpu.icache.tags.ageTaskId_1024::0           18                       # Occupied blocks per task id, per block age (Count)
system.cpu.icache.tags.ageTaskId_1024::1            2                       # Occupied blocks per task id, per block age (Count)
system.cpu.icache.tags.ageTaskId_1024::2          236                       # Occupied blocks per task id, per block age (Count)
system.cpu.icache.tags.ratioOccsTaskId::1024            1                       # Ratio of occupied blocks and all blocks, per task id (Ratio)
system.cpu.icache.tags.tagAccesses             375693                       # Number of tag accesses (Count)
system.cpu.icache.tags.dataAccesses            375693                       # Number of data accesses (Count)
system.cpu.icache.tags.power_state.pwrStateResidencyTicks::UNDEFINED    473236500                       # Cumulative time (in ticks) in various power states (Tick)
system.cpu.iew.idleCycles                           0                       # Number of cycles IEW is idle (Cycle)
system.cpu.iew.squashCycles                      4118                       # Number of cycles IEW is squashing (Cycle)
system.cpu.iew.blockCycles                      15095                       # Number of cycles IEW is blocking (Cycle)
system.cpu.iew.unblockCycles                    15603                       # Number of cycles IEW is unblocking (Cycle)
system.cpu.iew.dispatchedInsts                1166462                       # Number of instructions dispatched to IQ (Count)
system.cpu.iew.dispSquashedInsts                  854                       # Number of squashed instructions skipped by dispatch (Count)
system.cpu.iew.dispLoadInsts                   185309                       # Number of dispatched load instructions (Count)
system.cpu.iew.dispStoreInsts                  135944                       # Number of dispatched store instructions (Count)
system.cpu.iew.dispNonSpecInsts                   504                       # Number of dispatched non-speculative instructions (Count)
system.cpu.iew.iqFullEvents                        70                       # Number of times the IQ has become full, causing a stall (Count)
system.cpu.iew.lsqFullEvents                    15557                       # Number of times the LSQ has become full, causing a stall (Count)
system.cpu.iew.memOrderViolationEvents             46                       # Number of memory order violations (Count)
system.cpu.iew.predictedTakenIncorrect           1458                       # Number of branches that were predicted taken incorrectly (Count)
system.cpu.iew.predictedNotTakenIncorrect         2826                       # Number of branches that were predicted not taken incorrectly (Count)
system.cpu.iew.branchMispredicts                 4284                       # Number of branch mispredicts detected at execute (Count)
system.cpu.iew.instsToCommit                  1145047                       # Cumulative count of insts sent to commit (Count)
system.cpu.iew.writebackCount                 1143814                       # Cumulative count of insts written-back (Count)
system.cpu.iew.producerInst                    554731                       # Number of instructions producing a value (Count)
system.cpu.iew.consumerInst                    957047                       # Number of instructions consuming a value (Count)
system.cpu.iew.wbRate                        1.208500                       # Insts written-back per cycle ((Count/Cycle))
system.cpu.iew.wbFanout                      0.579628                       # Average fanout of values written-back ((Count/Count))
system.cpu.lsq0.forwLoads                       10909                       # Number of loads that had data forwarded from stores (Count)
system.cpu.lsq0.squashedLoads                    8373                       # Number of loads squashed (Count)
system.cpu.lsq0.ignoredResponses                   50                       # Number of memory responses ignored because the instruction is squashed (Count)
system.cpu.lsq0.memOrderViolation                  46                       # Number of memory ordering violations (Count)
system.cpu.lsq0.squashedStores                   5450                       # Number of stores squashed (Count)
system.cpu.lsq0.rescheduledLoads                 4975                       # Number of loads that were rescheduled (Count)
system.cpu.lsq0.blockedByCache                     59                       # Number of times an access to memory failed due to the cache being blocked (Count)
system.cpu.lsq0.loadToUse::samples             175689                       # Distribution of cycle latency between the first time a load is issued and its completion (Unspecified)
system.cpu.lsq0.loadToUse::mean              4.003506                       # Distribution of cycle latency between the first time a load is issued and its completion (Unspecified)
system.cpu.lsq0.loadToUse::stdev            11.272558                       # Distribution of cycle latency between the first time a load is issued and its completion (Unspecified)
system.cpu.lsq0.loadToUse::0-9                 172839     98.38%     98.38% # Distribution of cycle latency between the first time a load is issued and its completion (Unspecified)
system.cpu.lsq0.loadToUse::10-19                 2024      1.15%     99.53% # Distribution of cycle latency between the first time a load is issued and its completion (Unspecified)
system.cpu.lsq0.loadToUse::20-29                    4      0.00%     99.53% # Distribution of cycle latency between the first time a load is issued and its completion (Unspecified)
system.cpu.lsq0.loadToUse::30-39                    5      0.00%     99.53% # Distribution of cycle latency between the first time a load is issued and its completion (Unspecified)
system.cpu.lsq0.loadToUse::40-49                   36      0.02%     99.56% # Distribution of cycle latency between the first time a load is issued and its completion (Unspecified)
system.cpu.lsq0.loadToUse::50-59                    8      0.00%     99.56% # Distribution of cycle latency between the first time a load is issued and its completion (Unspecified)
system.cpu.lsq0.loadToUse::60-69                    1      0.00%     99.56% # Distribution of cycle latency between the first time a load is issued and its completion (Unspecified)
system.cpu.lsq0.loadToUse::70-79                    2      0.00%     99.56% # Distribution of cycle latency between the first time a load is issued and its completion (Unspecified)
system.cpu.lsq0.loadToUse::80-89                    3      0.00%     99.56% # Distribution of cycle latency between the first time a load is issued and its completion (Unspecified)
system.cpu.lsq0.loadToUse::90-99                    6      0.00%     99.57% # Distribution of cycle latency between the first time a load is issued and its completion (Unspecified)
system.cpu.lsq0.loadToUse::100-109                  4      0.00%     99.57% # Distribution of cycle latency between the first time a load is issued and its completion (Unspecified)
[...]
system.mem_ctrls.dram.perBankWrBursts::8            0                       # Per bank write bursts (Count)
system.mem_ctrls.dram.perBankWrBursts::9            0                       # Per bank write bursts (Count)
system.mem_ctrls.dram.perBankWrBursts::10            0                       # Per bank write bursts (Count)
system.mem_ctrls.dram.perBankWrBursts::11            0                       # Per bank write bursts (Count)
system.mem_ctrls.dram.perBankWrBursts::12            0                       # Per bank write bursts (Count)
system.mem_ctrls.dram.perBankWrBursts::13            0                       # Per bank write bursts (Count)
system.mem_ctrls.dram.perBankWrBursts::14            0                       # Per bank write bursts (Count)
system.mem_ctrls.dram.perBankWrBursts::15            0                       # Per bank write bursts (Count)
system.mem_ctrls.dram.totQLat                12693750                       # Total ticks spent queuing (Tick)
system.mem_ctrls.dram.totBusLat               6885000                       # Total ticks spent in databus transfers (Tick)
system.mem_ctrls.dram.totMemAccLat           38512500                       # Total ticks spent from burst creation until serviced by the DRAM (Tick)
system.mem_ctrls.dram.avgQLat                 9218.41                       # Average queueing delay per DRAM burst ((Tick/Count))
system.mem_ctrls.dram.avgBusLat               5000.00                       # Average bus latency per DRAM burst ((Tick/Count))
system.mem_ctrls.dram.avgMemAccLat           27968.41                       # Average memory access latency per DRAM burst ((Tick/Count))
system.mem_ctrls.dram.readRowHits                 972                       # Number of row buffer hits during reads (Count)
system.mem_ctrls.dram.writeRowHits                  0                       # Number of row buffer hits during writes (Count)
system.mem_ctrls.dram.readRowHitRate            70.59                       # Row buffer hit rate for reads (Ratio)
system.mem_ctrls.dram.writeRowHitRate             nan                       # Row buffer hit rate for writes (Ratio)
system.mem_ctrls.dram.bytesPerActivate::samples          401                       # Bytes accessed per row activation (Byte)
system.mem_ctrls.dram.bytesPerActivate::mean   218.972569                       # Bytes accessed per row activation (Byte)
system.mem_ctrls.dram.bytesPerActivate::gmean   145.805216                       # Bytes accessed per row activation (Byte)
system.mem_ctrls.dram.bytesPerActivate::stdev   245.708652                       # Bytes accessed per row activation (Byte)
system.mem_ctrls.dram.bytesPerActivate::0-127          134     33.42%     33.42% # Bytes accessed per row activation (Byte)
system.mem_ctrls.dram.bytesPerActivate::128-255          173     43.14%     76.56% # Bytes accessed per row activation (Byte)
system.mem_ctrls.dram.bytesPerActivate::256-383           27      6.73%     83.29% # Bytes accessed per row activation (Byte)
system.mem_ctrls.dram.bytesPerActivate::384-511           16      3.99%     87.28% # Bytes accessed per row activation (Byte)
system.mem_ctrls.dram.bytesPerActivate::512-639           10      2.49%     89.78% # Bytes accessed per row activation (Byte)
system.mem_ctrls.dram.bytesPerActivate::640-767           13      3.24%     93.02% # Bytes accessed per row activation (Byte)
system.mem_ctrls.dram.bytesPerActivate::768-895            7      1.75%     94.76% # Bytes accessed per row activation (Byte)
system.mem_ctrls.dram.bytesPerActivate::896-1023            5      1.25%     96.01% # Bytes accessed per row activation (Byte)
system.mem_ctrls.dram.bytesPerActivate::1024-1151           16      3.99%    100.00% # Bytes accessed per row activation (Byte)
system.mem_ctrls.dram.bytesPerActivate::total          401                       # Bytes accessed per row activation (Byte)
system.mem_ctrls.dram.bytesRead                 88128                       # Total bytes read (Byte)
system.mem_ctrls.dram.bytesWritten                  0                       # Total bytes written (Byte)
system.mem_ctrls.dram.avgRdBW              186.224013                       # Average DRAM read bandwidth in MiBytes/s ((Byte/Second))
system.mem_ctrls.dram.avgWrBW                       0                       # Average DRAM write bandwidth in MiBytes/s ((Byte/Second))
system.mem_ctrls.dram.peakBW                 12800.00                       # Theoretical peak bandwidth in MiByte/s ((Byte/Second))
system.mem_ctrls.dram.busUtil                    1.45                       # Data bus utilization in percentage (Ratio)
system.mem_ctrls.dram.busUtilRead                1.45                       # Data bus utilization in percentage for reads (Ratio)
system.mem_ctrls.dram.busUtilWrite               0.00                       # Data bus utilization in percentage for writes (Ratio)
system.mem_ctrls.dram.pageHitRate               70.59                       # Row buffer hit rate, read and write combined (Ratio)
system.mem_ctrls.dram.power_state.pwrStateResidencyTicks::UNDEFINED    473236500                       # Cumulative time (in ticks) in various power states (Tick)
system.mem_ctrls.dram.rank0.actEnergy         1292340                       # Energy for activate commands per rank (pJ) (Joule)
system.mem_ctrls.dram.rank0.preEnergy          679305                       # Energy for precharge commands per rank (pJ) (Joule)
system.mem_ctrls.dram.rank0.readEnergy        5647740                       # Energy for read commands per rank (pJ) (Joule)
system.mem_ctrls.dram.rank0.writeEnergy             0                       # Energy for write commands per rank (pJ) (Joule)
system.mem_ctrls.dram.rank0.refreshEnergy 36878400.000000                       # Energy for refresh commands per rank (pJ) (Joule)
system.mem_ctrls.dram.rank0.actBackEnergy    132525570                       # Energy for active background per rank (pJ) (Joule)
system.mem_ctrls.dram.rank0.preBackEnergy     70122720                       # Energy for precharge background per rank (pJ) (Joule)
system.mem_ctrls.dram.rank0.actPowerDownEnergy            0                       # Energy for active power-down per rank (pJ) (Joule)
system.mem_ctrls.dram.rank0.prePowerDownEnergy            0                       # Energy for precharge power-down per rank (pJ) (Joule)
system.mem_ctrls.dram.rank0.selfRefreshEnergy            0                       # Energy for self refresh per rank (pJ) (Joule)
system.mem_ctrls.dram.rank0.totalEnergy     247146075                       # Total energy per rank (pJ) (Joule)
system.mem_ctrls.dram.rank0.averagePower   522.246435                       # Core power per rank (mW) (Watt)
system.mem_ctrls.dram.rank0.totalIdleTime            0                       # Total Idle time Per DRAM Rank (Tick)
system.mem_ctrls.dram.rank0.pwrStateTime::IDLE    181161750                       # Time in different power states (Tick)
system.mem_ctrls.dram.rank0.pwrStateTime::REF     15600000                       # Time in different power states (Tick)
system.mem_ctrls.dram.rank0.pwrStateTime::SREF            0                       # Time in different power states (Tick)
system.mem_ctrls.dram.rank0.pwrStateTime::PRE_PDN            0                       # Time in different power states (Tick)
system.mem_ctrls.dram.rank0.pwrStateTime::ACT    276474750                       # Time in different power states (Tick)
system.mem_ctrls.dram.rank0.pwrStateTime::ACT_PDN            0                       # Time in different power states (Tick)
system.mem_ctrls.dram.rank1.actEnergy         1599360                       # Energy for activate commands per rank (pJ) (Joule)
system.mem_ctrls.dram.rank1.preEnergy          842490                       # Energy for precharge commands per rank (pJ) (Joule)
system.mem_ctrls.dram.rank1.readEnergy        4184040                       # Energy for read commands per rank (pJ) (Joule)
system.mem_ctrls.dram.rank1.writeEnergy             0                       # Energy for write commands per rank (pJ) (Joule)
system.mem_ctrls.dram.rank1.refreshEnergy 36878400.000000                       # Energy for refresh commands per rank (pJ) (Joule)
system.mem_ctrls.dram.rank1.actBackEnergy    190921500                       # Energy for active background per rank (pJ) (Joule)
system.mem_ctrls.dram.rank1.preBackEnergy     20947200                       # Energy for precharge background per rank (pJ) (Joule)
system.mem_ctrls.dram.rank1.actPowerDownEnergy            0                       # Energy for active power-down per rank (pJ) (Joule)
system.mem_ctrls.dram.rank1.prePowerDownEnergy            0                       # Energy for precharge power-down per rank (pJ) (Joule)
system.mem_ctrls.dram.rank1.selfRefreshEnergy            0                       # Energy for self refresh per rank (pJ) (Joule)
system.mem_ctrls.dram.rank1.totalEnergy     255372990                       # Total energy per rank (pJ) (Joule)
system.mem_ctrls.dram.rank1.averagePower   539.630798                       # Core power per rank (mW) (Watt)
system.mem_ctrls.dram.rank1.totalIdleTime            0                       # Total Idle time Per DRAM Rank (Tick)
system.mem_ctrls.dram.rank1.pwrStateTime::IDLE     52856750                       # Time in different power states (Tick)
system.mem_ctrls.dram.rank1.pwrStateTime::REF     15600000                       # Time in different power states (Tick)
system.mem_ctrls.dram.rank1.pwrStateTime::SREF            0                       # Time in different power states (Tick)
system.mem_ctrls.dram.rank1.pwrStateTime::PRE_PDN            0                       # Time in different power states (Tick)
system.mem_ctrls.dram.rank1.pwrStateTime::ACT    404779750                       # Time in different power states (Tick)
system.mem_ctrls.dram.rank1.pwrStateTime::ACT_PDN            0                       # Time in different power states (Tick)
system.mem_ctrls.power_state.pwrStateResidencyTicks::UNDEFINED    473236500                       # Cumulative time (in ticks) in various power states (Tick)
system.membus.transDist::ReadResp                 987                       # Transaction distribution (Count)
system.membus.transDist::ReadExReq                390                       # Transaction distribution (Count)
system.membus.transDist::ReadExResp               390                       # Transaction distribution (Count)
system.membus.transDist::ReadSharedReq            987                       # Transaction distribution (Count)
system.membus.transDist::InvalidateReq              8                       # Transaction distribution (Count)
system.membus.pktCount_system.l2.mem_side_port::system.mem_ctrls.port         2762                       # Packet count per connected requestor and responder (Count)
system.membus.pktCount::total                    2762                       # Packet count per connected requestor and responder (Count)
system.membus.pktSize_system.l2.mem_side_port::system.mem_ctrls.port        88128                       # Cumulative packet size per connected requestor and responder (Byte)
system.membus.pktSize::total                    88128                       # Cumulative packet size per connected requestor and responder (Byte)
system.membus.snoops                                0                       # Total snoops (Count)
system.membus.snoopTraffic                          0                       # Total snoop traffic (Byte)
system.membus.snoopFanout::samples               1385                       # Request fanout histogram (Count)
system.membus.snoopFanout::mean                     0                       # Request fanout histogram (Count)
system.membus.snoopFanout::stdev                    0                       # Request fanout histogram (Count)
system.membus.snoopFanout::underflows               0      0.00%      0.00% # Request fanout histogram (Count)
system.membus.snoopFanout::0                     1385    100.00%    100.00% # Request fanout histogram (Count)
system.membus.snoopFanout::1                        0      0.00%    100.00% # Request fanout histogram (Count)
system.membus.snoopFanout::overflows                0      0.00%    100.00% # Request fanout histogram (Count)
system.membus.snoopFanout::min_value                0                       # Request fanout histogram (Count)
system.membus.snoopFanout::max_value                0                       # Request fanout histogram (Count)
system.membus.snoopFanout::total                 1385                       # Request fanout histogram (Count)
system.membus.power_state.pwrStateResidencyTicks::UNDEFINED    473236500                       # Cumulative time (in ticks) in various power states (Tick)
system.membus.reqLayer0.occupancy             1678500                       # Layer occupancy (ticks) (Tick)
system.membus.reqLayer0.utilization               0.0                       # Layer utilization (Ratio)
system.membus.respLayer1.occupancy            7327750                       # Layer occupancy (ticks) (Tick)
system.membus.respLayer1.utilization              0.0                       # Layer utilization (Ratio)
system.membus.snoop_filter.totRequests           1385                       # Total number of requests made to the snoop filter. (Count)
system.membus.snoop_filter.hitSingleRequests            0                       # Number of requests hitting in the snoop filter with a single holder of the requested data. (Count)
system.membus.snoop_filter.hitMultiRequests            0                       # Number of requests hitting in the snoop filter with multiple (>1) holders of the requested data. (Count)
system.membus.snoop_filter.totSnoops                0                       # Total number of snoops made to the snoop filter. (Count)
system.membus.snoop_filter.hitSingleSnoops            0                       # Number of snoops hitting in the snoop filter with a single holder of the requested data. (Count)
system.membus.snoop_filter.hitMultiSnoops            0                       # Number of snoops hitting in the snoop filter with multiple (>1) holders of the requested data. (Count)
system.tol2bus.transDist::ReadResp              10843                       # Transaction distribution (Count)
system.tol2bus.transDist::WritebackDirty           43                       # Transaction distribution (Count)
system.tol2bus.transDist::WritebackClean        10345                       # Transaction distribution (Count)
system.tol2bus.transDist::CleanEvict               16                       # Transaction distribution (Count)
system.tol2bus.transDist::ReadExReq               394                       # Transaction distribution (Count)
system.tol2bus.transDist::ReadExResp              394                       # Transaction distribution (Count)
system.tol2bus.transDist::ReadCleanReq          10601                       # Transaction distribution (Count)
system.tol2bus.transDist::ReadSharedReq           242                       # Transaction distribution (Count)
system.tol2bus.transDist::InvalidateReq             8                       # Transaction distribution (Count)
system.tol2bus.transDist::InvalidateResp            8                       # Transaction distribution (Count)
system.tol2bus.pktCount_system.cpu.icache.mem_side_port::system.l2.cpu_side_port        31547                       # Packet count per connected requestor and responder (Count)
system.tol2bus.pktCount_system.cpu.dcache.mem_side_port::system.l2.cpu_side_port         1347                       # Packet count per connected requestor and responder (Count)
system.tol2bus.pktCount::total                  32894                       # Packet count per connected requestor and responder (Count)
system.tol2bus.pktSize_system.cpu.icache.mem_side_port::system.l2.cpu_side_port      1340544                       # Cumulative packet size per connected requestor and responder (Byte)
system.tol2bus.pktSize_system.cpu.dcache.mem_side_port::system.l2.cpu_side_port        43456                       # Cumulative packet size per connected requestor and responder (Byte)
system.tol2bus.pktSize::total                 1384000                       # Cumulative packet size per connected requestor and responder (Byte)
system.tol2bus.snoops                               0                       # Total snoops (Count)
system.tol2bus.snoopTraffic                         0                       # Total snoop traffic (Byte)
system.tol2bus.snoopFanout::samples             11245                       # Request fanout histogram (Count)
system.tol2bus.snoopFanout::mean             0.000089                       # Request fanout histogram (Count)
system.tol2bus.snoopFanout::stdev            0.009430                       # Request fanout histogram (Count)
system.tol2bus.snoopFanout::underflows              0      0.00%      0.00% # Request fanout histogram (Count)
system.tol2bus.snoopFanout::0                   11244     99.99%     99.99% # Request fanout histogram (Count)
system.tol2bus.snoopFanout::1                       1      0.01%    100.00% # Request fanout histogram (Count)
system.tol2bus.snoopFanout::2                       0      0.00%    100.00% # Request fanout histogram (Count)
system.tol2bus.snoopFanout::overflows               0      0.00%    100.00% # Request fanout histogram (Count)
system.tol2bus.snoopFanout::min_value               0                       # Request fanout histogram (Count)
system.tol2bus.snoopFanout::max_value               1                       # Request fanout histogram (Count)
system.tol2bus.snoopFanout::total               11245                       # Request fanout histogram (Count)
system.tol2bus.power_state.pwrStateResidencyTicks::UNDEFINED    473236500                       # Cumulative time (in ticks) in various power states (Tick)
system.tol2bus.reqLayer0.occupancy           21212500                       # Layer occupancy (ticks) (Tick)
system.tol2bus.reqLayer0.utilization              0.0                       # Layer utilization (Ratio)
system.tol2bus.respLayer0.occupancy          15901500                       # Layer occupancy (ticks) (Tick)
system.tol2bus.respLayer0.utilization             0.0                       # Layer utilization (Ratio)
system.tol2bus.respLayer1.occupancy            958000                       # Layer occupancy (ticks) (Tick)
system.tol2bus.respLayer1.utilization             0.0                       # Layer utilization (Ratio)
system.tol2bus.snoop_filter.totRequests         21649                       # Total number of requests made to the snoop filter. (Count)
system.tol2bus.snoop_filter.hitSingleRequests        10404                       # Number of requests hitting in the snoop filter with a single holder of the requested data. (Count)
system.tol2bus.snoop_filter.hitMultiRequests            1                       # Number of requests hitting in the snoop filter with multiple (>1) holders of the requested data. (Count)
system.tol2bus.snoop_filter.totSnoops               0                       # Total number of snoops made to the snoop filter. (Count)
system.tol2bus.snoop_filter.hitSingleSnoops            0                       # Number of snoops hitting in the snoop filter with a single holder of the requested data. (Count)
system.tol2bus.snoop_filter.hitMultiSnoops            0                       # Number of snoops hitting in the snoop filter with multiple (>1) holders of the requested data. (Count)
system.voltage_domain.voltage                       1                       # Voltage in Volts (Volt)
system.workload.inst.arm                            0                       # number of arm instructions executed (Count)
system.workload.inst.quiesce                        0                       # number of quiesce instructions executed (Count)

---------- End Simulation Statistics   ----------
