
---------- Begin Simulation Statistics ----------
simSeconds                                   0.000473                       # Number of seconds simulated (Second)
simTicks                                    473273000                       # Number of ticks simulated (Tick)
finalTick                                   473273000                       # Number of ticks from beginning of simulation (restored from checkpoints and never reset) (Tick)
simFreq                                  1000000000000                       # The number of ticks per simulated second ((Tick/Second))
hostSeconds                                      4.68                       # Real time elapsed on the host (Second)
hostTickRate                                101197817                       # The number of ticks simulated per host second (ticks/s) ((Tick/Second))
hostMemory                                    8537760                       # Number of bytes of host memory used (Byte)
simInsts                                      1000003                       # Number of instructions simulated (Count)
simOps                                        1111651                       # Number of ops (including micro ops) simulated (Count)
hostInstRate                                   213823                       # Simulator instruction rate (inst/s) ((Count/Second))
hostOpRate                                     237695                       # Simulator op (including micro ops) rate (op/s) ((Count/Second))
system.clk_domain.clock                          1000                       # Clock period in ticks (Tick)
system.cpu.numCycles                           946547                       # Number of cpu cycles simulated (Cycle)
system.cpu.numWorkItemsStarted                      0                       # Number of work items this cpu started (Count)
system.cpu.numWorkItemsCompleted                    0                       # Number of work items this cpu completed (Count)
system.cpu.instsAdded                         1163849                       # Number of instructions added to the IQ (excludes non-spec) (Count)
system.cpu.nonSpecInstsAdded                      504                       # Number of non-speculative instructions added to the IQ (Count)
system.cpu.instsIssued                        1156119                       # Number of instructions issued (Count)
system.cpu.squashedInstsIssued                    362                       # Number of squashed instructions issued (Count)
system.cpu.squashedInstsExamined                52683                       # Number of squashed instructions iterated over during squash; mainly for profiling (Count)
system.cpu.squashedOperandsExamined             29482                       # Number of squashed operands that are examined and possibly removed from graph (Count)
system.cpu.squashedNonSpecRemoved                  18                       # Number of squashed non-spec instructions that were removed (Count)
system.cpu.numIssuedDist::samples              851073                       # Number of insts issued each cycle (Count)
system.cpu.numIssuedDist::mean               1.358425                       # Number of insts issued each cycle (Count)
system.cpu.numIssuedDist::stdev              1.490207                       # Number of insts issued each cycle (Count)
system.cpu.numIssuedDist::underflows                0      0.00%      0.00% # Number of insts issued each cycle (Count)
system.cpu.numIssuedDist::0                    376366     44.22%     44.22% # Number of insts issued each cycle (Count)
system.cpu.numIssuedDist::1                    142064     16.69%     60.91% # Number of insts issued each cycle (Count)
system.cpu.numIssuedDist::2                    105879     12.44%     73.36% # Number of insts issued each cycle (Count)
system.cpu.numIssuedDist::3                    104759     12.31%     85.66% # Number of insts issued each cycle (Count)
system.cpu.numIssuedDist::4                    122005     14.34%    100.00% # Number of insts issued each cycle (Count)
system.cpu.numIssuedDist::overflows                 0      0.00%    100.00% # Number of insts issued each cycle (Count)
system.cpu.numIssuedDist::min_value                 0                       # Number of insts issued each cycle (Count)
system.cpu.numIssuedDist::max_value                 4                       # Number of insts issued each cycle (Count)
system.cpu.numIssuedDist::total                851073                       # Number of insts issued each cycle (Count)
system.cpu.statFuBusy::No_OpClass                   0      0.00%      0.00% # attempts to use FU when none available (Count)
system.cpu.statFuBusy::IntAlu                       0      0.00%      0.00% # attempts to use FU when none available (Count)
system.cpu.statFuBusy::IntMult                    282     84.68%     84.68% # attempts to use FU when none available (Count)
system.cpu.statFuBusy::IntDiv                       0      0.00%     84.68% # attempts to use FU when none available (Count)
system.cpu.statFuBusy::FloatAdd                     0      0.00%     84.68% # attempts to use FU when none available (Count)
system.cpu.statFuBusy::FloatCmp                     0      0.00%     84.68% # attempts to use FU when none available (Count)
system.cpu.statFuBusy::FloatCvt                     0      0.00%     84.68% # attempts to use FU when none available (Count)
system.cpu.statFuBusy::FloatMult                   14      4.20%     88.89% # attempts to use FU when none available (Count)
system.cpu.statFuBusy::FloatMultAcc                 1      0.30%     89.19% # attempts to use FU when none available (Count)
system.cpu.statFuBusy::FloatDiv                    36     10.81%    100.00% # attempts to use FU when none available (Count)
system.cpu.statFuBusy::FloatMisc                    0      0.00%    100.00% # attempts to use FU when none available (Count)
system.cpu.statFuBusy::FloatSqrt                    0      0.00%    100.00% # attempts to use FU when none available (Count)
system.cpu.statFuBusy::SimdAdd                      0      0.00%    100.00% # attempts to use FU when none available (Count)
system.cpu.statFuBusy::SimdAddAcc                   0      0.00%    100.00% # attempts to use FU when none available (Count)
system.cpu.statFuBusy::SimdAlu                      0      0.00%    100.00% # attempts to use FU when none available (Count)
system.cpu.statFuBusy::SimdCmp                      0      0.00%    100.00% # attempts to use FU when none available (Count)
system.cpu.statFuBusy::SimdCvt                      0      0.00%    100.00% # attempts to use FU when none available (Count)
system.cpu.statFuBusy::SimdMisc                     0      0.00%    100.00% # attempts to use FU when none available (Count)
system.cpu.statFuBusy::SimdMult                     0      0.00%    100.00% # attempts to use FU when none available (Count)
system.cpu.statFuBusy::SimdMultAcc                  0      0.00%    100.00% # attempts to use FU when none available (Count)
system.cpu.statFuBusy::SimdShift                    0      0.00%    100.00% # attempts to use FU when none available (Count)
system.cpu.statFuBusy::SimdShiftAcc                 0      0.00%    100.00% # attempts to use FU when none available (Count)
system.cpu.statFuBusy::SimdDiv                      0      0.00%    100.00% # attempts to use FU when none available (Count)
system.cpu.statFuBusy::SimdSqrt                     0      0.00%    100.00% # attempts to use FU when none available (Count)
system.cpu.statFuBusy::SimdFloatAdd                 0      0.00%    100.00% # attempts to use FU when none available (Count)
system.cpu.statFuBusy::SimdFloatAlu                 0      0.00%    100.00% # attempts to use FU when none available (Count)
system.cpu.statFuBusy::SimdFloatCmp                 0      0.00%    100.00% # attempts to use FU when none available (Count)
system.cpu.statFuBusy::SimdFloatCvt                 0      0.00%    100.00% # attempts to use FU when none available (Count)
system.cpu.statFuBusy::SimdFloatDiv                 0      0.00%    100.00% # attempts to use FU when none available (Count)
system.cpu.statFuBusy::SimdFloatMisc                0      0.00%    100.00% # attempts to use FU when none available (Count)
system.cpu.statFuBusy::SimdFloatMult                0      0.00%    100.00% # attempts to use FU when none available (Count)
system.cpu.statFuBusy::SimdFloatMultAcc             0      0.00%    100.00% # attempts to use FU when none available (Count)
system.cpu.statFuBusy::SimdFloatSqrt                0      0.00%    100.00% # attempts to use FU when none available (Count)
system.cpu.statFuBusy::SimdReduceAdd                0      0.00%    100.00% # attempts to use FU when none available (Count)
system.cpu.statFuBusy::SimdReduceAlu                0      0.00%    100.00% # attempts to use FU when none available (Count)
system.cpu.statFuBusy::SimdReduceCmp                0      0.00%    100.00% # attempts to use FU when none available (Count)
system.cpu.statFuBusy::SimdFloatReduceAdd            0      0.00%    100.00% # attempts to use FU when none available (Count)
system.cpu.statFuBusy::SimdFloatReduceCmp            0      0.00%    100.00% # attempts to use FU when none available (Count)
system.cpu.statFuBusy::SimdAes                      0      0.00%    100.00% # attempts to use FU when none available (Count)
system.cpu.statFuBusy::SimdAesMix                   0      0.00%    100.00% # attempts to use FU when none available (Count)
system.cpu.statFuBusy::SimdSha1Hash                 0      0.00%    100.00% # attempts to use FU when none available (Count)
system.cpu.statFuBusy::SimdSha1Hash2                0      0.00%    100.00% # attempts to use FU when none available (Count)
system.cpu.statFuBusy::SimdSha256Hash               0      0.00%    100.00% # attempts to use FU when none available (Count)
system.cpu.statFuBusy::SimdSha256Hash2              0      0.00%    100.00% # attempts to use FU when none available (Count)
system.cpu.statFuBusy::SimdShaSigma2                0      0.00%    100.00% # attempts to use FU when none available (Count)
system.cpu.statFuBusy::SimdShaSigma3                0      0.00%    100.00% # attempts to use FU when none available (Count)
system.cpu.statFuBusy::SimdPredAlu                  0      0.00%    100.00% # attempts to use FU when none available (Count)
system.cpu.statFuBusy::MemRead                      0      0.00%    100.00% # attempts to use FU when none available (Count)
system.cpu.statFuBusy::MemWrite                     0      0.00%    100.00% # attempts to use FU when none available (Count)
system.cpu.statFuBusy::FloatMemRead                 0      0.00%    100.00% # attempts to use FU when none available (Count)
system.cpu.statFuBusy::FloatMemWrite                0      0.00%    100.00% # attempts to use FU when none available (Count)
system.cpu.statFuBusy::IprAccess                    0      0.00%    100.00% # attempts to use FU when none available (Count)
system.cpu.statFuBusy::InstPrefetch                 0      0.00%    100.00% # attempts to use FU when none available (Count)
system.cpu.statIssuedInstType_0::No_OpClass          210      0.02%      0.02% # Number of instructions issued per FU type, per thread (Count)
system.cpu.statIssuedInstType_0::IntAlu        823165     71.20%     71.22% # Number of instructions issued per FU type, per thread (Count)
system.cpu.statIssuedInstType_0::IntMult         3856      0.33%     71.55% # Number of instructions issued per FU type, per thread (Count)
system.cpu.statIssuedInstType_0::IntDiv           912      0.08%     71.63% # Number of instructions issued per FU type, per thread (Count)
system.cpu.statIssuedInstType_0::FloatAdd          438      0.04%     71.67% # Number of instructions issued per FU type, per thread (Count)
system.cpu.statIssuedInstType_0::FloatCmp            7      0.00%     71.67% # Number of instructions issued per FU type, per thread (Count)
system.cpu.statIssuedInstType_0::FloatCvt            0      0.00%     71.67% # Number of instructions issued per FU type, per thread (Count)
system.cpu.statIssuedInstType_0::FloatMult           16      0.00%     71.67% # Number of instructions issued per FU type, per thread (Count)
system.cpu.statIssuedInstType_0::FloatMultAcc           22      0.00%     71.67% # Number of instructions issued per FU type, per thread (Count)
system.cpu.statIssuedInstType_0::FloatDiv            9      0.00%     71.67% # Number of instructions issued per FU type, per thread (Count)
system.cpu.statIssuedInstType_0::FloatMisc         1805      0.16%     71.83% # Number of instructions issued per FU type, per thread (Count)
system.cpu.statIssuedInstType_0::FloatSqrt            1      0.00%     71.83% # Number of instructions issued per FU type, per thread (Count)
system.cpu.statIssuedInstType_0::SimdAdd          463      0.04%     71.87% # Number of instructions issued per FU type, per thread (Count)
system.cpu.statIssuedInstType_0::SimdAddAcc            0      0.00%     71.87% # Number of instructions issued per FU type, per thread (Count)
system.cpu.statIssuedInstType_0::SimdAlu          721      0.06%     71.93% # Number of instructions issued per FU type, per thread (Count)
system.cpu.statIssuedInstType_0::SimdCmp          674      0.06%     71.99% # Number of instructions issued per FU type, per thread (Count)
system.cpu.statIssuedInstType_0::SimdCvt            0      0.00%     71.99% # Number of instructions issued per FU type, per thread (Count)
system.cpu.statIssuedInstType_0::SimdMisc          548      0.05%     72.04% # Number of instructions issued per FU type, per thread (Count)
system.cpu.statIssuedInstType_0::SimdMult            0      0.00%     72.04% # Number of instructions issued per FU type, per thread (Count)
system.cpu.statIssuedInstType_0::SimdMultAcc            0      0.00%     72.04% # Number of instructions issued per FU type, per thread (Count)
system.cpu.statIssuedInstType_0::SimdShift            0      0.00%     72.04% # Number of instructions issued per FU type, per thread (Count)
system.cpu.statIssuedInstType_0::SimdShiftAcc            0      0.00%     72.04% # Number of instructions issued per FU type, per thread (Count)
system.cpu.statIssuedInstType_0::SimdDiv            0      0.00%     72.04% # Number of instructions issued per FU type, per thread (Count)
system.cpu.statIssuedInstType_0::SimdSqrt            0      0.00%     72.04% # Number of instructions issued per FU type, per thread (Count)
system.cpu.statIssuedInstType_0::SimdFloatAdd            0      0.00%     72.04% # Number of instructions issued per FU type, per thread (Count)
system.cpu.statIssuedInstType_0::SimdFloatAlu            0      0.00%     72.04% # Number of instructions issued per FU type, per thread (Count)
system.cpu.statIssuedInstType_0::SimdFloatCmp            0      0.00%     72.04% # Number of instructions issued per FU type, per thread (Count)
system.cpu.statIssuedInstType_0::SimdFloatCvt            0      0.00%     72.04% # Number of instructions issued per FU type, per thread (Count)
system.cpu.statIssuedInstType_0::SimdFloatDiv            0      0.00%     72.04% # Number of instructions issued per FU type, per thread (Count)
system.cpu.statIssuedInstType_0::SimdFloatMisc            0      0.00%     72.04% # Number of instructions issued per FU type, per thread (Count)
system.cpu.statIssuedInstType_0::SimdFloatMult            0      0.00%     72.04% # Number of instructions issued per FU type, per thread (Count)
system.cpu.statIssuedInstType_0::SimdFloatMultAcc            0      0.00%     72.04% # Number of instructions issued per FU type, per thread (Count)
system.cpu.statIssuedInstType_0::SimdFloatSqrt            0      0.00%     72.04% # Number of instructions issued per FU type, per thread (Count)
system.cpu.statIssuedInstType_0::SimdReduceAdd            0      0.00%     72.04% # Number of instructions issued per FU type, per thread (Count)
system.cpu.statIssuedInstType_0::SimdReduceAlu            0      0.00%     72.04% # Number of instructions issued per FU type, per thread (Count)
system.cpu.statIssuedInstType_0::SimdReduceCmp            0      0.00%     72.04% # Number of instructions issued per FU type, per thread (Count)
system.cpu.statIssuedInstType_0::SimdFloatReduceAdd            0      0.00%     72.04% # Number of instructions issued per FU type, per thread (Count)
system.cpu.statIssuedInstType_0::SimdFloatReduceCmp            0      0.00%     72.04% # Number of instructions issued per FU type, per thread (Count)
system.cpu.statIssuedInstType_0::SimdAes            0      0.00%     72.04% # Number of instructions issued per FU type, per thread (Count)
system.cpu.statIssuedInstType_0::SimdAesMix            0      0.00%     72.04% # Number of instructions issued per FU type, per thread (Count)
system.cpu.statIssuedInstType_0::SimdSha1Hash            0      0.00%     72.04% # Number of instructions issued per FU type, per thread (Count)
system.cpu.statIssuedInstType_0::SimdSha1Hash2            0      0.00%     72.04% # Number of instructions issued per FU type, per thread (Count)
system.cpu.statIssuedInstType_0::SimdSha256Hash            0      0.00%     72.04% # Number of instructions issued per FU type, per thread (Count)
system.cpu.statIssuedInstType_0::SimdSha256Hash2            0      0.00%     72.04% # Number of instructions issued per FU type, per thread (Count)
system.cpu.statIssuedInstType_0::SimdShaSigma2            0      0.00%     72.04% # Number of instructions issued per FU type, per thread (Count)
system.cpu.statIssuedInstType_0::SimdShaSigma3            0      0.00%     72.04% # Number of instructions issued per FU type, per thread (Count)
system.cpu.statIssuedInstType_0::SimdPredAlu            0      0.00%     72.04% # Number of instructions issued per FU type, per thread (Count)
system.cpu.statIssuedInstType_0::MemRead       188745     16.33%     88.36% # Number of instructions issued per FU type, per thread (Count)
system.cpu.statIssuedInstType_0::MemWrite       134527     11.64%    100.00% # Number of instructions issued per FU type, per thread (Count)
system.cpu.statIssuedInstType_0::FloatMemRead            0      0.00%    100.00% # Number of instructions issued per FU type, per thread (Count)
system.cpu.statIssuedInstType_0::FloatMemWrite            0      0.00%    100.00% # Number of instructions issued per FU type, per thread (Count)
system.cpu.statIssuedInstType_0::IprAccess            0      0.00%    100.00% # Number of instructions issued per FU type, per thread (Count)
system.cpu.statIssuedInstType_0::InstPrefetch            0      0.00%    100.00% # Number of instructions issued per FU type, per thread (Count)
system.cpu.statIssuedInstType_0::total        1156119                       # Number of instructions issued per FU type, per thread (Count)
system.cpu.issueRate                         1.221407                       # Inst issue rate ((Count/Cycle))
system.cpu.fuBusy                                 333                       # FU busy when requested (Count)
system.cpu.fuBusyRate                        0.000288                       # FU busy rate (busy events/executed inst) ((Count/Count))
system.cpu.intInstQueueReads                  3140570                       # Number of integer instruction queue reads (Count)
system.cpu.intInstQueueWrites                 1203295                       # Number of integer instruction queue writes (Count)
system.cpu.intInstQueueWakeupAccesses         1132183                       # Number of integer instruction queue wakeup accesses (Count)
system.cpu.fpInstQueueReads                         0                       # Number of floating instruction queue reads (Count)
system.cpu.fpInstQueueWrites                        0                       # Number of floating instruction queue writes (Count)
system.cpu.fpInstQueueWakeupAccesses                0                       # Number of floating instruction queue wakeup accesses (Count)
system.cpu.vecInstQueueReads                    23435                       # Number of vector instruction queue reads (Count)
system.cpu.vecInstQueueWrites                   13782                       # Number of vector instruction queue writes (Count)
system.cpu.vecInstQueueWakeupAccesses           11482                       # Number of vector instruction queue wakeup accesses (Count)
system.cpu.intAluAccesses                     1144709                       # Number of integer alu accesses (Count)
system.cpu.fpAluAccesses                            0                       # Number of floating point alu accesses (Count)
system.cpu.vecAluAccesses                       11533                       # Number of vector alu accesses (Count)
system.cpu.numInsts                           1151856                       # Number of executed instructions (Count)
system.cpu.numLoadInsts                        187644                       # Number of load instructions executed (Count)
system.cpu.numSquashedInsts                      4262                       # Number of squashed instructions skipped in execute (Count)
system.cpu.numSwp                                   0                       # Number of swp insts executed (Count)
system.cpu.numNop                                2006                       # Number of nop insts executed (Count)
system.cpu.numRefs                             321743                       # Number of memory reference insts executed (Count)
system.cpu.numBranches                         222593                       # Number of branches executed (Count)
system.cpu.numStoreInsts                       134099                       # Number of stores executed (Count)
system.cpu.numRate                           1.216903                       # Inst execution rate ((Count/Cycle))
system.cpu.timesIdled                            8245                       # Number of times that the entire CPU went into an idle state and unscheduled itself (Count)
system.cpu.idleCycles                           95474                       # Total number of cycles that the CPU has spent unscheduled due to idling (Cycle)
system.cpu.committedInsts                     1000003                       # Number of Instructions Simulated (Count)
system.cpu.committedOps                       1111651                       # Number of Ops (including micro ops) Simulated (Count)
system.cpu.cpi                               0.946544                       # CPI: Cycles Per Instruction ((Cycle/Count))
system.cpu.totalCpi                          0.946544                       # CPI: Total CPI of All Threads ((Cycle/Count))
system.cpu.ipc                               1.056475                       # IPC: Instructions Per Cycle ((Count/Cycle))
system.cpu.totalIpc                          1.056475                       # IPC: Total IPC of All Threads ((Count/Cycle))
system.cpu.intRegfileReads                    1201891                       # Number of integer regfile reads (Count)
system.cpu.intRegfileWrites                    707721                       # Number of integer regfile writes (Count)
system.cpu.vecRegfileReads                      16979                       # number of vector regfile reads (Count)
system.cpu.ccRegfileReads                      401484                       # number of cc regfile reads (Count)
system.cpu.ccRegfileWrites                     395635                       # number of cc regfile writes (Count)
system.cpu.miscRegfileReads                    161627                       # number of misc regfile reads (Count)
system.cpu.miscRegfileWrites                     2390                       # number of misc regfile writes (Count)
system.cpu.MemDepUnit__0.insertedLoads         185285                       # Number of loads inserted to the mem dependence unit. (Count)
system.cpu.MemDepUnit__0.insertedStores        135959                       # Number of stores inserted to the mem dependence unit. (Count)
system.cpu.MemDepUnit__0.conflictingLoads         5780                       # Number of conflicting loads. (Count)
system.cpu.MemDepUnit__0.conflictingStores         3509                       # Number of conflicting stores. (Count)
system.cpu.MemDepUnit__1.insertedLoads              0                       # Number of loads inserted to the mem dependence unit. (Count)
system.cpu.MemDepUnit__1.insertedStores             0                       # Number of stores inserted to the mem dependence unit. (Count)
system.cpu.MemDepUnit__1.conflictingLoads            0                       # Number of conflicting loads. (Count)
system.cpu.MemDepUnit__1.conflictingStores            0                       # Number of conflicting stores. (Count)
system.cpu.MemDepUnit__2.insertedLoads              0                       # Number of loads inserted to the mem dependence unit. (Count)
system.cpu.MemDepUnit__2.insertedStores             0                       # Number of stores inserted to the mem dependence unit. (Count)
system.cpu.MemDepUnit__2.conflictingLoads            0                       # Number of conflicting loads. (Count)
system.cpu.MemDepUnit__2.conflictingStores            0                       # Number of conflicting stores. (Count)
system.cpu.MemDepUnit__3.insertedLoads              0                       # Number of loads inserted to the mem dependence unit. (Count)
system.cpu.MemDepUnit__3.insertedStores             0                       # Number of stores inserted to the mem dependence unit. (Count)
system.cpu.MemDepUnit__3.conflictingLoads            0                       # Number of conflicting loads. (Count)
system.cpu.MemDepUnit__3.conflictingStores            0                       # Number of conflicting stores. (Count)
system.cpu.branchPred.lookups                  234647                       # Number of BP lookups (Count)
system.cpu.branchPred.condPredicted            182262                       # Number of conditional branches predicted (Count)
system.cpu.branchPred.condIncorrect              4455                       # Number of conditional branches incorrect (Count)
system.cpu.branchPred.BTBLookups               111677                       # Number of BTB lookups (Count)
system.cpu.branchPred.BTBHits                  110116                       # Number of BTB hits (Count)
system.cpu.branchPred.BTBHitRatio            0.986022                       # BTB Hit Ratio (Ratio)
system.cpu.branchPred.RASUsed                   11922                       # Number of times the RAS was used to get a target. (Count)
system.cpu.branchPred.RASIncorrect                  1                       # Number of incorrect RAS predictions. (Count)
system.cpu.branchPred.indirectLookups            3155                       # Number of indirect predictor lookups. (Count)
system.cpu.branchPred.indirectHits               2798                       # Number of indirect target hits. (Count)
system.cpu.branchPred.indirectMisses              357                       # Number of indirect misses. (Count)
system.cpu.branchPred.indirectMispredicted          103                       # Number of mispredicted indirect branches. (Count)
system.cpu.commit.commitSquashedInsts           52191                       # The number of squashed insts skipped by commit (Count)
system.cpu.commit.commitNonSpecStalls             486                       # The number of times commit has been forced to stall to communicate backwards (Count)
system.cpu.commit.branchMispredicts              4008                       # The number of times a branch was mispredicted (Count)
system.cpu.commit.numCommittedDist::samples       836082                       # Number of insts commited each cycle (Count)
system.cpu.commit.numCommittedDist::mean     1.331816                       # Number of insts commited each cycle (Count)
system.cpu.commit.numCommittedDist::stdev     1.549550                       # Number of insts commited each cycle (Count)
system.cpu.commit.numCommittedDist::underflows            0      0.00%      0.00% # Number of insts commited each cycle (Count)
system.cpu.commit.numCommittedDist::0          382694     45.77%     45.77% # Number of insts commited each cycle (Count)
system.cpu.commit.numCommittedDist::1          164608     19.69%     65.46% # Number of insts commited each cycle (Count)
system.cpu.commit.numCommittedDist::2           74482      8.91%     74.37% # Number of insts commited each cycle (Count)
system.cpu.commit.numCommittedDist::3           57257      6.85%     81.22% # Number of insts commited each cycle (Count)
system.cpu.commit.numCommittedDist::4          157041     18.78%    100.00% # Number of insts commited each cycle (Count)
system.cpu.commit.numCommittedDist::overflows            0      0.00%    100.00% # Number of insts commited each cycle (Count)
system.cpu.commit.numCommittedDist::min_value            0                       # Number of insts commited each cycle (Count)
system.cpu.commit.numCommittedDist::max_value            4                       # Number of insts commited each cycle (Count)
system.cpu.commit.numCommittedDist::total       836082                       # Number of insts commited each cycle (Count)
system.cpu.commit.instsCommitted              1001859                       # Number of instructions committed (Count)
system.cpu.commit.opsCommitted                1113507                       # Number of ops (including micro ops) committed (Count)
system.cpu.commit.memRefs                      307448                       # Number of memory references committed (Count)
system.cpu.commit.loads                        176939                       # Number of loads committed (Count)
system.cpu.commit.amos                              0                       # Number of atomic instructions committed (Count)
system.cpu.commit.membars                         475                       # Number of memory barriers committed (Count)
system.cpu.commit.branches                     216044                       # Number of branches committed (Count)
system.cpu.commit.vectorInstructions            10338                       # Number of committed Vector instructions. (Count)
system.cpu.commit.floating                          0                       # Number of committed floating point instructions. (Count)
system.cpu.commit.integer                      980767                       # Number of committed integer instructions. (Count)
system.cpu.commit.functionCalls                 11110                       # Number of function calls committed. (Count)
system.cpu.commit.committedInstType_0::No_OpClass          184      0.02%      0.02% # Class of committed instruction (Count)
system.cpu.commit.committedInstType_0::IntAlu       796960     71.57%     71.59% # Class of committed instruction (Count)
system.cpu.commit.committedInstType_0::IntMult         3693      0.33%     71.92% # Class of committed instruction (Count)
system.cpu.commit.committedInstType_0::IntDiv          912      0.08%     72.00% # Class of committed instruction (Count)
system.cpu.commit.committedInstType_0::FloatAdd          438      0.04%     72.04% # Class of committed instruction (Count)
system.cpu.commit.committedInstType_0::FloatCmp            6      0.00%     72.04% # Class of committed instruction (Count)
system.cpu.commit.committedInstType_0::FloatCvt            0      0.00%     72.04% # Class of committed instruction (Count)
system.cpu.commit.committedInstType_0::FloatMult           15      0.00%     72.04% # Class of committed instruction (Count)
system.cpu.commit.committedInstType_0::FloatMultAcc           21      0.00%     72.05% # Class of committed instruction (Count)
system.cpu.commit.committedInstType_0::FloatDiv            9      0.00%     72.05% # Class of committed instruction (Count)
system.cpu.commit.committedInstType_0::FloatMisc         1629      0.15%     72.19% # Class of committed instruction (Count)
system.cpu.commit.committedInstType_0::FloatSqrt            0      0.00%     72.19% # Class of committed instruction (Count)
system.cpu.commit.committedInstType_0::SimdAdd          429      0.04%     72.23% # Class of committed instruction (Count)
system.cpu.commit.committedInstType_0::SimdAddAcc            0      0.00%     72.23% # Class of committed instruction (Count)
system.cpu.commit.committedInstType_0::SimdAlu          645      0.06%     72.29% # Class of committed instruction (Count)
system.cpu.commit.committedInstType_0::SimdCmp          594      0.05%     72.34% # Class of committed instruction (Count)
system.cpu.commit.committedInstType_0::SimdCvt            0      0.00%     72.34% # Class of committed instruction (Count)
system.cpu.commit.committedInstType_0::SimdMisc          524      0.05%     72.39% # Class of committed instruction (Count)
system.cpu.commit.committedInstType_0::SimdMult            0      0.00%     72.39% # Class of committed instruction (Count)
system.cpu.commit.committedInstType_0::SimdMultAcc            0      0.00%     72.39% # Class of committed instruction (Count)
system.cpu.commit.committedInstType_0::SimdShift            0      0.00%     72.39% # Class of committed instruction (Count)
system.cpu.commit.committedInstType_0::SimdShiftAcc            0      0.00%     72.39% # Class of committed instruction (Count)
system.cpu.commit.committedInstType_0::SimdDiv            0      0.00%     72.39% # Class of committed instruction (Count)
system.cpu.commit.committedInstType_0::SimdSqrt            0      0.00%     72.39% # Class of committed instruction (Count)
system.cpu.commit.committedInstType_0::SimdFloatAdd            0      0.00%     72.39% # Class of committed instruction (Count)
system.cpu.commit.committedInstType_0::SimdFloatAlu            0      0.00%     72.39% # Class of committed instruction (Count)
system.cpu.commit.committedInstType_0::SimdFloatCmp            0      0.00%     72.39% # Class of committed instruction (Count)
system.cpu.commit.committedInstType_0::SimdFloatCvt            0      0.00%     72.39% # Class of committed instruction (Count)
system.cpu.commit.committedInstType_0::SimdFloatDiv            0      0.00%     72.39% # Class of committed instruction (Count)
system.cpu.commit.committedInstType_0::SimdFloatMisc            0      0.00%     72.39% # Class of committed instruction (Count)
system.cpu.commit.committedInstType_0::SimdFloatMult            0      0.00%     72.39% # Class of committed instruction (Count)
system.cpu.commit.committedInstType_0::SimdFloatMultAcc            0      0.00%     72.39% # Class of committed instruction (Count)
system.cpu.commit.committedInstType_0::SimdFloatSqrt            0      0.00%     72.39% # Class of committed instruction (Count)
system.cpu.commit.committedInstType_0::SimdReduceAdd            0      0.00%     72.39% # Class of committed instruction (Count)
system.cpu.commit.committedInstType_0::SimdReduceAlu            0      0.00%     72.39% # Class of committed instruction (Count)
system.cpu.commit.committedInstType_0::SimdReduceCmp            0      0.00%     72.39% # Class of committed instruction (Count)
system.cpu.commit.committedInstType_0::SimdFloatReduceAdd            0      0.00%     72.39% # Class of committed instruction (Count)
system.cpu.commit.committedInstType_0::SimdFloatReduceCmp            0      0.00%     72.39% # Class of committed instruction (Count)
system.cpu.commit.committedInstType_0::SimdAes            0      0.00%     72.39% # Class of committed instruction (Count)
system.cpu.commit.committedInstType_0::SimdAesMix            0      0.00%     72.39% # Class of committed instruction (Count)
system.cpu.commit.committedInstType_0::SimdSha1Hash            0      0.00%     72.39% # Class of committed instruction (Count)
system.cpu.commit.committedInstType_0::SimdSha1Hash2            0      0.00%     72.39% # Class of committed instruction (Count)
system.cpu.commit.committedInstType_0::SimdSha256Hash            0      0.00%     72.39% # Class of committed instruction (Count)
system.cpu.commit.committedInstType_0::SimdSha256Hash2            0      0.00%     72.39% # Class of committed instruction (Count)
system.cpu.commit.committedInstType_0::SimdShaSigma2            0      0.00%     72.39% # Class of committed instruction (Count)
system.cpu.commit.committedInstType_0::SimdShaSigma3            0      0.00%     72.39% # Class of committed instruction (Count)
system.cpu.commit.committedInstType_0::SimdPredAlu            0      0.00%     72.39% # Class of committed instruction (Count)
system.cpu.commit.committedInstType_0::MemRead       176939     15.89%     88.28% # Class of committed instruction (Count)
system.cpu.commit.committedInstType_0::MemWrite       130509     11.72%    100.00% # Class of committed instruction (Count)
system.cpu.commit.committedInstType_0::FloatMemRead            0      0.00%    100.00% # Class of committed instruction (Count)
system.cpu.commit.committedInstType_0::FloatMemWrite            0      0.00%    100.00% # Class of committed instruction (Count)
system.cpu.commit.committedInstType_0::IprAccess            0      0.00%    100.00% # Class of committed instruction (Count)
system.cpu.commit.committedInstType_0::InstPrefetch            0      0.00%    100.00% # Class of committed instruction (Count)
system.cpu.commit.committedInstType_0::total      1113507                       # Class of committed instruction (Count)
system.cpu.commit.commitEligibleSamples        157041                       # number cycles where commit BW limit reached (Cycle)
system.cpu.dcache.demandHits::cpu.data         298418                       # number of demand (read+write) hits (Count)
system.cpu.dcache.demandHits::total            298418                       # number of demand (read+write) hits (Count)
system.cpu.dcache.overallHits::cpu.data        299667                       # number of overall hits (Count)
system.cpu.dcache.overallHits::total           299667                       # number of overall hits (Count)
system.cpu.dcache.demandMisses::cpu.data         2379                       # number of demand (read+write) misses (Count)
system.cpu.dcache.demandMisses::total            2379                       # number of demand (read+write) misses (Count)
system.cpu.dcache.overallMisses::cpu.data         2382                       # number of overall misses (Count)
system.cpu.dcache.overallMisses::total           2382                       # number of overall misses (Count)
system.cpu.dcache.demandMissLatency::cpu.data    184487957                       # number of demand (read+write) miss ticks (Tick)
system.cpu.dcache.demandMissLatency::total    184487957                       # number of demand (read+write) miss ticks (Tick)
system.cpu.dcache.overallMissLatency::cpu.data    184487957                       # number of overall miss ticks (Tick)
system.cpu.dcache.overallMissLatency::total    184487957                       # number of overall miss ticks (Tick)
system.cpu.dcache.demandAccesses::cpu.data       300797                       # number of demand (read+write) accesses (Count)
system.cpu.dcache.demandAccesses::total        300797                       # number of demand (read+write) accesses (Count)
system.cpu.dcache.overallAccesses::cpu.data       302049                       # number of overall (read+write) accesses (Count)
system.cpu.dcache.overallAccesses::total       302049                       # number of overall (read+write) accesses (Count)
system.cpu.dcache.demandMissRate::cpu.data     0.007909                       # miss rate for demand accesses (Ratio)
system.cpu.dcache.demandMissRate::total      0.007909                       # miss rate for demand accesses (Ratio)
system.cpu.dcache.overallMissRate::cpu.data     0.007886                       # miss rate for overall accesses (Ratio)
system.cpu.dcache.overallMissRate::total     0.007886                       # miss rate for overall accesses (Ratio)
system.cpu.dcache.demandAvgMissLatency::cpu.data 77548.531736                       # average overall miss latency in ticks ((Tick/Count))
system.cpu.dcache.demandAvgMissLatency::total 77548.531736                       # average overall miss latency in ticks ((Tick/Count))
system.cpu.dcache.overallAvgMissLatency::cpu.data 77450.863560                       # average overall miss latency ((Tick/Count))
system.cpu.dcache.overallAvgMissLatency::total 77450.863560                       # average overall miss latency ((Tick/Count))
system.cpu.dcache.blockedCycles::no_mshrs         3206                       # number of cycles access was blocked (Cycle)
system.cpu.dcache.blockedCycles::no_targets            0                       # number of cycles access was blocked (Cycle)
system.cpu.dcache.blockedCauses::no_mshrs           64                       # number of times access was blocked (Count)
system.cpu.dcache.blockedCauses::no_targets            0                       # number of times access was blocked (Count)
system.cpu.dcache.avgBlocked::no_mshrs      50.093750                       # average number of cycles each access was blocked ((Cycle/Count))
system.cpu.dcache.avgBlocked::no_targets          nan                       # average number of cycles each access was blocked ((Cycle/Count))
system.cpu.dcache.writebacks::writebacks           44                       # number of writebacks (Count)
system.cpu.dcache.writebacks::total                44                       # number of writebacks (Count)
system.cpu.dcache.demandMshrHits::cpu.data         1739                       # number of demand (read+write) MSHR hits (Count)
system.cpu.dcache.demandMshrHits::total          1739                       # number of demand (read+write) MSHR hits (Count)
system.cpu.dcache.overallMshrHits::cpu.data         1739                       # number of overall MSHR hits (Count)
system.cpu.dcache.overallMshrHits::total         1739                       # number of overall MSHR hits (Count)
system.cpu.dcache.demandMshrMisses::cpu.data          640                       # number of demand (read+write) MSHR misses (Count)
system.cpu.dcache.demandMshrMisses::total          640                       # number of demand (read+write) MSHR misses (Count)
system.cpu.dcache.overallMshrMisses::cpu.data          643                       # number of overall MSHR misses (Count)
system.cpu.dcache.overallMshrMisses::total          643                       # number of overall MSHR misses (Count)
system.cpu.dcache.demandMshrMissLatency::cpu.data     52211994                       # number of demand (read+write) MSHR miss ticks (Tick)
system.cpu.dcache.demandMshrMissLatency::total     52211994                       # number of demand (read+write) MSHR miss ticks (Tick)
system.cpu.dcache.overallMshrMissLatency::cpu.data     52444494                       # number of overall MSHR miss ticks (Tick)
system.cpu.dcache.overallMshrMissLatency::total     52444494                       # number of overall MSHR miss ticks (Tick)
system.cpu.dcache.demandMshrMissRate::cpu.data     0.002128                       # mshr miss ratio for demand accesses (Ratio)
system.cpu.dcache.demandMshrMissRate::total     0.002128                       # mshr miss ratio for demand accesses (Ratio)
system.cpu.dcache.overallMshrMissRate::cpu.data     0.002129                       # mshr miss ratio for overall accesses (Ratio)
system.cpu.dcache.overallMshrMissRate::total     0.002129                       # mshr miss ratio for overall accesses (Ratio)
system.cpu.dcache.demandAvgMshrMissLatency::cpu.data 81581.240625                       # average overall mshr miss latency ((Tick/Count))
system.cpu.dcache.demandAvgMshrMissLatency::total 81581.240625                       # average overall mshr miss latency ((Tick/Count))
system.cpu.dcache.overallAvgMshrMissLatency::cpu.data 81562.199067                       # average overall mshr miss latency ((Tick/Count))
system.cpu.dcache.overallAvgMshrMissLatency::total 81562.199067                       # average overall mshr miss latency ((Tick/Count))
system.cpu.dcache.replacements                     60                       # number of replacements (Count)
system.cpu.dcache.LoadLockedReq.hits::cpu.data          484                       # number of LoadLockedReq hits (Count)
system.cpu.dcache.LoadLockedReq.hits::total          484                       # number of LoadLockedReq hits (Count)
system.cpu.dcache.LoadLockedReq.accesses::cpu.data          484                       # number of LoadLockedReq accesses(hits+misses) (Count)
system.cpu.dcache.LoadLockedReq.accesses::total          484                       # number of LoadLockedReq accesses(hits+misses) (Count)
system.cpu.dcache.ReadReq.hits::cpu.data       170064                       # number of ReadReq hits (Count)
system.cpu.dcache.ReadReq.hits::total          170064                       # number of ReadReq hits (Count)
system.cpu.dcache.ReadReq.misses::cpu.data          699                       # number of ReadReq misses (Count)
system.cpu.dcache.ReadReq.misses::total           699                       # number of ReadReq misses (Count)
system.cpu.dcache.ReadReq.missLatency::cpu.data     54718000                       # number of ReadReq miss ticks (Tick)
system.cpu.dcache.ReadReq.missLatency::total     54718000                       # number of ReadReq miss ticks (Tick)
system.cpu.dcache.ReadReq.accesses::cpu.data       170763                       # number of ReadReq accesses(hits+misses) (Count)
system.cpu.dcache.ReadReq.accesses::total       170763                       # number of ReadReq accesses(hits+misses) (Count)
system.cpu.dcache.ReadReq.missRate::cpu.data     0.004093                       # miss rate for ReadReq accesses (Ratio)
system.cpu.dcache.ReadReq.missRate::total     0.004093                       # miss rate for ReadReq accesses (Ratio)
system.cpu.dcache.ReadReq.avgMissLatency::cpu.data 78280.400572                       # average ReadReq miss latency ((Tick/Count))
system.cpu.dcache.ReadReq.avgMissLatency::total 78280.400572                       # average ReadReq miss latency ((Tick/Count))
system.cpu.dcache.ReadReq.mshrHits::cpu.data          461                       # number of ReadReq MSHR hits (Count)
system.cpu.dcache.ReadReq.mshrHits::total          461                       # number of ReadReq MSHR hits (Count)
system.cpu.dcache.ReadReq.mshrMisses::cpu.data          238                       # number of ReadReq MSHR misses (Count)
system.cpu.dcache.ReadReq.mshrMisses::total          238                       # number of ReadReq MSHR misses (Count)
system.cpu.dcache.ReadReq.mshrMissLatency::cpu.data     19725000                       # number of ReadReq MSHR miss ticks (Tick)
system.cpu.dcache.ReadReq.mshrMissLatency::total     19725000                       # number of ReadReq MSHR miss ticks (Tick)
system.cpu.dcache.ReadReq.mshrMissRate::cpu.data     0.001394                       # mshr miss rate for ReadReq accesses (Ratio)
system.cpu.dcache.ReadReq.mshrMissRate::total     0.001394                       # mshr miss rate for ReadReq accesses (Ratio)
system.cpu.dcache.ReadReq.avgMshrMissLatency::cpu.data 82878.151261                       # average ReadReq mshr miss latency ((Tick/Count))
system.cpu.dcache.ReadReq.avgMshrMissLatency::total 82878.151261                       # average ReadReq mshr miss latency ((Tick/Count))
system.cpu.dcache.SoftPFReq.hits::cpu.data         1249                       # number of SoftPFReq hits (Count)
system.cpu.dcache.SoftPFReq.hits::total          1249                       # number of SoftPFReq hits (Count)
system.cpu.dcache.SoftPFReq.misses::cpu.data            3                       # number of SoftPFReq misses (Count)
system.cpu.dcache.SoftPFReq.misses::total            3                       # number of SoftPFReq misses (Count)
system.cpu.dcache.SoftPFReq.accesses::cpu.data         1252                       # number of SoftPFReq accesses(hits+misses) (Count)
system.cpu.dcache.SoftPFReq.accesses::total         1252                       # number of SoftPFReq accesses(hits+misses) (Count)
system.cpu.dcache.SoftPFReq.missRate::cpu.data     0.002396                       # miss rate for SoftPFReq accesses (Ratio)
system.cpu.dcache.SoftPFReq.missRate::total     0.002396                       # miss rate for SoftPFReq accesses (Ratio)
system.cpu.dcache.SoftPFReq.mshrMisses::cpu.data            3                       # number of SoftPFReq MSHR misses (Count)
system.cpu.dcache.SoftPFReq.mshrMisses::total            3                       # number of SoftPFReq MSHR misses (Count)
system.cpu.dcache.SoftPFReq.mshrMissLatency::cpu.data       232500                       # number of SoftPFReq MSHR miss ticks (Tick)
system.cpu.dcache.SoftPFReq.mshrMissLatency::total       232500                       # number of SoftPFReq MSHR miss ticks (Tick)
system.cpu.dcache.SoftPFReq.mshrMissRate::cpu.data     0.002396                       # mshr miss rate for SoftPFReq accesses (Ratio)
system.cpu.dcache.SoftPFReq.mshrMissRate::total     0.002396                       # mshr miss rate for SoftPFReq accesses (Ratio)
system.cpu.dcache.SoftPFReq.avgMshrMissLatency::cpu.data        77500                       # average SoftPFReq mshr miss latency ((Tick/Count))
system.cpu.dcache.SoftPFReq.avgMshrMissLatency::total        77500                       # average SoftPFReq mshr miss latency ((Tick/Count))
system.cpu.dcache.StoreCondReq.hits::cpu.data          475                       # number of StoreCondReq hits (Count)
system.cpu.dcache.StoreCondReq.hits::total          475                       # number of StoreCondReq hits (Count)
system.cpu.dcache.StoreCondReq.accesses::cpu.data          475                       # number of StoreCondReq accesses(hits+misses) (Count)
system.cpu.dcache.StoreCondReq.accesses::total          475                       # number of StoreCondReq accesses(hits+misses) (Count)
system.cpu.dcache.WriteLineReq.hits::cpu.data            7                       # number of WriteLineReq hits (Count)
system.cpu.dcache.WriteLineReq.hits::total            7                       # number of WriteLineReq hits (Count)
system.cpu.dcache.WriteLineReq.misses::cpu.data            8                       # number of WriteLineReq misses (Count)
system.cpu.dcache.WriteLineReq.misses::total            8                       # number of WriteLineReq misses (Count)
system.cpu.dcache.WriteLineReq.missLatency::cpu.data       253498                       # number of WriteLineReq miss ticks (Tick)
system.cpu.dcache.WriteLineReq.missLatency::total       253498                       # number of WriteLineReq miss ticks (Tick)
system.cpu.dcache.WriteLineReq.accesses::cpu.data           15                       # number of WriteLineReq accesses(hits+misses) (Count)
system.cpu.dcache.WriteLineReq.accesses::total           15                       # number of WriteLineReq accesses(hits+misses) (Count)
system.cpu.dcache.WriteLineReq.missRate::cpu.data     0.533333                       # miss rate for WriteLineReq accesses (Ratio)
system.cpu.dcache.WriteLineReq.missRate::total     0.533333                       # miss rate for WriteLineReq accesses (Ratio)
system.cpu.dcache.WriteLineReq.avgMissLatency::cpu.data 31687.250000                       # average WriteLineReq miss latency ((Tick/Count))
system.cpu.dcache.WriteLineReq.avgMissLatency::total 31687.250000                       # average WriteLineReq miss latency ((Tick/Count))
system.cpu.dcache.WriteLineReq.mshrMisses::cpu.data            8                       # number of WriteLineReq MSHR misses (Count)
system.cpu.dcache.WriteLineReq.mshrMisses::total            8                       # number of WriteLineReq MSHR misses (Count)
system.cpu.dcache.WriteLineReq.mshrMissLatency::cpu.data       245498                       # number of WriteLineReq MSHR miss ticks (Tick)
system.cpu.dcache.WriteLineReq.mshrMissLatency::total       245498                       # number of WriteLineReq MSHR miss ticks (Tick)
system.cpu.dcache.WriteLineReq.mshrMissRate::cpu.data     0.533333                       # mshr miss rate for WriteLineReq accesses (Ratio)
system.cpu.dcache.WriteLineReq.mshrMissRate::total     0.533333                       # mshr miss rate for WriteLineReq accesses (Ratio)
system.cpu.dcache.WriteLineReq.avgMshrMissLatency::cpu.data 30687.250000                       # average WriteLineReq mshr miss latency ((Tick/Count))
system.cpu.dcache.WriteLineReq.avgMshrMissLatency::total 30687.250000                       # average WriteLineReq mshr miss latency ((Tick/Count))
system.cpu.dcache.WriteReq.hits::cpu.data       128347                       # number of WriteReq hits (Count)
system.cpu.dcache.WriteReq.hits::total         128347                       # number of WriteReq hits (Count)
system.cpu.dcache.WriteReq.misses::cpu.data         1672                       # number of WriteReq misses (Count)
system.cpu.dcache.WriteReq.misses::total         1672                       # number of WriteReq misses (Count)
system.cpu.dcache.WriteReq.missLatency::cpu.data    129516459                       # number of WriteReq miss ticks (Tick)
system.cpu.dcache.WriteReq.missLatency::total    129516459                       # number of WriteReq miss ticks (Tick)
system.cpu.dcache.WriteReq.accesses::cpu.data       130019                       # number of WriteReq accesses(hits+misses) (Count)
system.cpu.dcache.WriteReq.accesses::total       130019                       # number of WriteReq accesses(hits+misses) (Count)
system.cpu.dcache.WriteReq.missRate::cpu.data     0.012860                       # miss rate for WriteReq accesses (Ratio)
system.cpu.dcache.WriteReq.missRate::total     0.012860                       # miss rate for WriteReq accesses (Ratio)
system.cpu.dcache.WriteReq.avgMissLatency::cpu.data 77461.997010                       # average WriteReq miss latency ((Tick/Count))
system.cpu.dcache.WriteReq.avgMissLatency::total 77461.997010                       # average WriteReq miss latency ((Tick/Count))
system.cpu.dcache.WriteReq.mshrHits::cpu.data         1278                       # number of WriteReq MSHR hits (Count)
system.cpu.dcache.WriteReq.mshrHits::total         1278                       # number of WriteReq MSHR hits (Count)
system.cpu.dcache.WriteReq.mshrMisses::cpu.data          394                       # number of WriteReq MSHR misses (Count)
system.cpu.dcache.WriteReq.mshrMisses::total          394                       # number of WriteReq MSHR misses (Count)
system.cpu.dcache.WriteReq.mshrMissLatency::cpu.data     32241496                       # number of WriteReq MSHR miss ticks (Tick)
system.cpu.dcache.WriteReq.mshrMissLatency::total     32241496                       # number of WriteReq MSHR miss ticks (Tick)
system.cpu.dcache.WriteReq.mshrMissRate::cpu.data     0.003030                       # mshr miss rate for WriteReq accesses (Ratio)
system.cpu.dcache.WriteReq.mshrMissRate::total     0.003030                       # mshr miss rate for WriteReq accesses (Ratio)
system.cpu.dcache.WriteReq.avgMshrMissLatency::cpu.data 81831.208122                       # average WriteReq mshr miss latency ((Tick/Count))
system.cpu.dcache.WriteReq.avgMshrMissLatency::total 81831.208122                       # average WriteReq mshr miss latency ((Tick/Count))
system.cpu.dcache.power_state.pwrStateResidencyTicks::UNDEFINED    473273000                       # Cumulative time (in ticks) in various power states (Tick)
system.cpu.dcache.tags.tagsInUse           419.411954                       # Average ticks per tags in use ((Tick/Count))
system.cpu.dcache.tags.totalRefs               301269                       # Total number of references to valid blocks. (Count)
system.cpu.dcache.tags.sampledRefs                643                       # Sample count of references to valid blocks. (Count)
system.cpu.dcache.tags.avgRefs             468.536547                       # Average number of references to valid blocks. ((Count/Count))
system.cpu.dcache.tags.warmupTick              176500                       # The tick when the warmup percentage was hit. (Tick)
system.cpu.dcache.tags.occupancies::cpu.data   419.411954                       # Average occupied blocks per tick, per requestor ((Count/Tick))
system.cpu.dcache.tags.avgOccs::cpu.data     0.409582                       # Average percentage of cache occupancy ((Ratio/Tick))
system.cpu.dcache.tags.avgOccs::total        0.409582                       # Average percentage of cache occupancy ((Ratio/Tick))
system.cpu.dcache.tags.occupanciesTaskId::1024          583                       # Occupied blocks per task id (Count)
system.cpu.dcache.tags.ageTaskId_1024::0            8                       # Occupied blocks per task id, per block age (Count)
system.cpu.dcache.tags.ageTaskId_1024::1           66                       # Occupied blocks per task id, per block age (Count)
system.cpu.dcache.tags.ageTaskId_1024::2          509                       # Occupied blocks per task id, per block age (Count)
system.cpu.dcache.tags.ratioOccsTaskId::1024     0.569336                       # Ratio of occupied blocks and all blocks, per task id (Ratio)
system.cpu.dcache.tags.tagAccesses             606659                       # Number of tag accesses (Count)
system.cpu.dcache.tags.dataAccesses            606659                       # Number of data accesses (Count)
system.cpu.dcache.tags.power_state.pwrStateResidencyTicks::UNDEFINED    473273000                       # Cumulative time (in ticks) in various power states (Tick)
system.cpu.decode.idleCycles                   377842                       # Number of cycles decode is idle (Cycle)
system.cpu.decode.blockedCycles                100843                       # Number of cycles decode is blocked (Cycle)
system.cpu.decode.runCycles                    362109                       # Number of cycles decode is running (Cycle)
system.cpu.decode.unblockCycles                  6163                       # Number of cycles decode is unblocking (Cycle)
system.cpu.decode.squashCycles                   4116                       # Number of cycles decode is squashing (Cycle)
system.cpu.decode.branchResolved               109240                       # Number of times decode resolved a branch (Count)
system.cpu.decode.branchMispred                   456                       # Number of times decode detected a branch misprediction (Count)
system.cpu.decode.decodedInsts                1189875                       # Number of instructions handled by decode (Count)
system.cpu.decode.squashedInsts                  1204                       # Number of squashed instructions handled by decode (Count)
system.cpu.fetch.icacheStallCycles             406719                       # Number of cycles fetch is stalled on an Icache miss (Cycle)
system.cpu.fetch.insts                        1085320                       # Number of instructions fetch has processed (Count)
system.cpu.fetch.branches                      234647                       # Number of branches that fetch encountered (Count)
system.cpu.fetch.predictedBranches             124836                       # Number of branches that fetch has predicted taken (Count)
system.cpu.fetch.cycles                        439775                       # Number of cycles fetch has run and was not squashing or blocked (Cycle)
system.cpu.fetch.squashCycles                    9126                       # Number of cycles fetch has spent squashing (Cycle)
system.cpu.fetch.miscStallCycles                    1                       # Number of cycles fetch has spent waiting on interrupts, or bad addresses, or out of MSHRs (Cycle)
system.cpu.fetch.icacheWaitRetryStallCycles           15                       # Number of stall cycles due to full MSHR (Cycle)
system.cpu.fetch.cacheLines                    182524                       # Number of cache lines fetched (Count)
system.cpu.fetch.icacheSquashes                  2205                       # Number of outstanding Icache misses that were squashed (Count)
system.cpu.fetch.nisnDist::samples             851073                       # Number of instructions fetched each cycle (Total) (Count)
system.cpu.fetch.nisnDist::mean              1.418177                       # Number of instructions fetched each cycle (Total) (Count)
system.cpu.fetch.nisnDist::stdev             1.752613                       # Number of instructions fetched each cycle (Total) (Count)
system.cpu.fetch.nisnDist::underflows               0      0.00%      0.00% # Number of instructions fetched each cycle (Total) (Count)
system.cpu.fetch.nisnDist::0                   470950     55.34%     55.34% # Number of instructions fetched each cycle (Total) (Count)
system.cpu.fetch.nisnDist::1                    55840      6.56%     61.90% # Number of instructions fetched each cycle (Total) (Count)
system.cpu.fetch.nisnDist::2                    51764      6.08%     67.98% # Number of instructions fetched each cycle (Total) (Count)
system.cpu.fetch.nisnDist::3                    42472      4.99%     72.97% # Number of instructions fetched each cycle (Total) (Count)
system.cpu.fetch.nisnDist::4                   230047     27.03%    100.00% # Number of instructions fetched each cycle (Total) (Count)
system.cpu.fetch.nisnDist::overflows                0      0.00%    100.00% # Number of instructions fetched each cycle (Total) (Count)
system.cpu.fetch.nisnDist::min_value                0                       # Number of instructions fetched each cycle (Total) (Count)
system.cpu.fetch.nisnDist::max_value                4                       # Number of instructions fetched each cycle (Total) (Count)
system.cpu.fetch.nisnDist::total               851073                       # Number of instructions fetched each cycle (Total) (Count)
system.cpu.fetch.branchRate                  0.247898                       # Number of branch fetches per cycle (Ratio)
system.cpu.fetch.rate                        1.146610                       # Number of inst fetches per cycle ((Count/Cycle))
system.cpu.icache.demandHits::cpu.inst         171586                       # number of demand (read+write) hits (Count)
system.cpu.icache.demandHits::total            171586                       # number of demand (read+write) hits (Count)
system.cpu.icache.overallHits::cpu.inst        171586                       # number of overall hits (Count)
system.cpu.icache.overallHits::total           171586                       # number of overall hits (Count)
system.cpu.icache.demandMisses::cpu.inst        10938                       # number of demand (read+write) misses (Count)
system.cpu.icache.demandMisses::total           10938                       # number of demand (read+write) misses (Count)
system.cpu.icache.overallMisses::cpu.inst        10938                       # number of overall misses (Count)
system.cpu.icache.overallMisses::total          10938                       # number of overall misses (Count)
system.cpu.icache.demandMissLatency::cpu.inst    206051500                       # number of demand (read+write) miss ticks (Tick)
system.cpu.icache.demandMissLatency::total    206051500                       # number of demand (read+write) miss ticks (Tick)
system.cpu.icache.overallMissLatency::cpu.inst    206051500                       # number of overall miss ticks (Tick)
system.cpu.icache.overallMissLatency::total    206051500                       # number of overall miss ticks (Tick)
system.cpu.icache.demandAccesses::cpu.inst       182524                       # number of demand (read+write) accesses (Count)
system.cpu.icache.demandAccesses::total        182524                       # number of demand (read+write) accesses (Count)
system.cpu.icache.overallAccesses::cpu.inst       182524                       # number of overall (read+write) accesses (Count)
system.cpu.icache.overallAccesses::total       182524                       # number of overall (read+write) accesses (Count)
system.cpu.icache.demandMissRate::cpu.inst     0.059926                       # miss rate for demand accesses (Ratio)
system.cpu.icache.demandMissRate::total      0.059926                       # miss rate for demand accesses (Ratio)
system.cpu.icache.overallMissRate::cpu.inst     0.059926                       # miss rate for overall accesses (Ratio)
system.cpu.icache.overallMissRate::total     0.059926                       # miss rate for overall accesses (Ratio)
system.cpu.icache.demandAvgMissLatency::cpu.inst 18838.133114                       # average overall miss latency in ticks ((Tick/Count))
system.cpu.icache.demandAvgMissLatency::total 18838.133114                       # average overall miss latency in ticks ((Tick/Count))
system.cpu.icache.overallAvgMissLatency::cpu.inst 18838.133114                       # average overall miss latency ((Tick/Count))
system.cpu.icache.overallAvgMissLatency::total 18838.133114                       # average overall miss latency ((Tick/Count))
system.cpu.icache.blockedCycles::no_mshrs          357                       # number of cycles access was blocked (Cycle)
system.cpu.icache.blockedCycles::no_targets            0                       # number of cycles access was blocked (Cycle)
system.cpu.icache.blockedCauses::no_mshrs            7                       # number of times access was blocked (Count)
system.cpu.icache.blockedCauses::no_targets            0                       # number of times access was blocked (Count)
system.cpu.icache.avgBlocked::no_mshrs             51                       # average number of cycles each access was blocked ((Cycle/Count))
system.cpu.icache.avgBlocked::no_targets          nan                       # average number of cycles each access was blocked ((Cycle/Count))
system.cpu.icache.writebacks::writebacks        10349                       # number of writebacks (Count)
system.cpu.icache.writebacks::total             10349                       # number of writebacks (Count)
system.cpu.icache.demandMshrHits::cpu.inst          332                       # number of demand (read+write) MSHR hits (Count)
system.cpu.icache.demandMshrHits::total           332                       # number of demand (read+write) MSHR hits (Count)
system.cpu.icache.overallMshrHits::cpu.inst          332                       # number of overall MSHR hits (Count)
system.cpu.icache.overallMshrHits::total          332                       # number of overall MSHR hits (Count)
system.cpu.icache.demandMshrMisses::cpu.inst        10606                       # number of demand (read+write) MSHR misses (Count)
system.cpu.icache.demandMshrMisses::total        10606                       # number of demand (read+write) MSHR misses (Count)
system.cpu.icache.overallMshrMisses::cpu.inst        10606                       # number of overall MSHR misses (Count)
system.cpu.icache.overallMshrMisses::total        10606                       # number of overall MSHR misses (Count)
system.cpu.icache.demandMshrMissLatency::cpu.inst    181391000                       # number of demand (read+write) MSHR miss ticks (Tick)
system.cpu.icache.demandMshrMissLatency::total    181391000                       # number of demand (read+write) MSHR miss ticks (Tick)
system.cpu.icache.overallMshrMissLatency::cpu.inst    181391000                       # number of overall MSHR miss ticks (Tick)
system.cpu.icache.overallMshrMissLatency::total    181391000                       # number of overall MSHR miss ticks (Tick)
system.cpu.icache.demandMshrMissRate::cpu.inst     0.058107                       # mshr miss ratio for demand accesses (Ratio)
system.cpu.icache.demandMshrMissRate::total     0.058107                       # mshr miss ratio for demand accesses (Ratio)
system.cpu.icache.overallMshrMissRate::cpu.inst     0.058107                       # mshr miss ratio for overall accesses (Ratio)
system.cpu.icache.overallMshrMissRate::total     0.058107                       # mshr miss ratio for overall accesses (Ratio)
system.cpu.icache.demandAvgMshrMissLatency::cpu.inst 17102.677730                       # average overall mshr miss latency ((Tick/Count))
system.cpu.icache.demandAvgMshrMissLatency::total 17102.677730                       # average overall mshr miss latency ((Tick/Count))
system.cpu.icache.overallAvgMshrMissLatency::cpu.inst 17102.677730                       # average overall mshr miss latency ((Tick/Count))
system.cpu.icache.overallAvgMshrMissLatency::total 17102.677730                       # average overall mshr miss latency ((Tick/Count))
system.cpu.icache.replacements                  10349                       # number of replacements (Count)
system.cpu.icache.ReadReq.hits::cpu.inst       171586                       # number of ReadReq hits (Count)
system.cpu.icache.ReadReq.hits::total          171586                       # number of ReadReq hits (Count)
system.cpu.icache.ReadReq.misses::cpu.inst        10938                       # number of ReadReq misses (Count)
system.cpu.icache.ReadReq.misses::total         10938                       # number of ReadReq misses (Count)
system.cpu.icache.ReadReq.missLatency::cpu.inst    206051500                       # number of ReadReq miss ticks (Tick)
system.cpu.icache.ReadReq.missLatency::total    206051500                       # number of ReadReq miss ticks (Tick)
system.cpu.icache.ReadReq.accesses::cpu.inst       182524                       # number of ReadReq accesses(hits+misses) (Count)
system.cpu.icache.ReadReq.accesses::total       182524                       # number of ReadReq accesses(hits+misses) (Count)
system.cpu.icache.ReadReq.missRate::cpu.inst     0.059926                       # miss rate for ReadReq accesses (Ratio)
system.cpu.icache.ReadReq.missRate::total     0.059926                       # miss rate for ReadReq accesses (Ratio)
system.cpu.icache.ReadReq.avgMissLatency::cpu.inst 18838.133114                       # average ReadReq miss latency ((Tick/Count))
system.cpu.icache.ReadReq.avgMissLatency::total 18838.133114                       # average ReadReq miss latency ((Tick/Count))
system.cpu.icache.ReadReq.mshrHits::cpu.inst          332                       # number of ReadReq MSHR hits (Count)
system.cpu.icache.ReadReq.mshrHits::total          332                       # number of ReadReq MSHR hits (Count)
system.cpu.icache.ReadReq.mshrMisses::cpu.inst        10606                       # number of ReadReq MSHR misses (Count)
system.cpu.icache.ReadReq.mshrMisses::total        10606                       # number of ReadReq MSHR misses (Count)
system.cpu.icache.ReadReq.mshrMissLatency::cpu.inst    181391000                       # number of ReadReq MSHR miss ticks (Tick)
system.cpu.icache.ReadReq.mshrMissLatency::total    181391000                       # number of ReadReq MSHR miss ticks (Tick)
system.cpu.icache.ReadReq.mshrMissRate::cpu.inst     0.058107                       # mshr miss rate for ReadReq accesses (Ratio)
system.cpu.icache.ReadReq.mshrMissRate::total     0.058107                       # mshr miss rate for ReadReq accesses (Ratio)
system.cpu.icache.ReadReq.avgMshrMissLatency::cpu.inst 17102.677730                       # average ReadReq mshr miss latency ((Tick/Count))
system.cpu.icache.ReadReq.avgMshrMissLatency::total 17102.677730                       # average ReadReq mshr miss latency ((Tick/Count))
system.cpu.icache.power_state.pwrStateResidencyTicks::UNDEFINED    473273000                       # Cumulative time (in ticks) in various power states (Tick)
system.cpu.icache.tags.tagsInUse           249.693705                       # Average ticks per tags in use ((Tick/Count))
system.cpu.icache.tags.totalRefs               182191                       # Total number of references to valid blocks. (Count)
system.cpu.icache.tags.sampledRefs              10605                       # Sample count of references to valid blocks. (Count)
system.cpu.icache.tags.avgRefs              17.179727                       # Average number of references to valid blocks. ((Count/Count))
system.cpu.icache.tags.warmupTick               87500                       # The tick when the warmup percentage was hit. (Tick)
system.cpu.icache.tags.occupancies::cpu.inst   249.693705                       # Average occupied blocks per tick, per requestor ((Count/Tick))
system.cpu.icache.tags.avgOccs::cpu.inst     0.975366                       # Average percentage of cache occupancy ((Ratio/Tick))
system.cpu.icache.tags.avgOccs::total        0.975366                       # Average percentage of cache occupancy ((Ratio/Tick))
system.cpu.icache.tags.occupanciesTaskId::1024          256                       # Occupied blocks per task id (Count)
system.cpu.icache.tags.ageTaskId_1024::0           18                       # Occupied blocks per task id, per block age (Count)
system.cpu.icache.tags.ageTaskId_1024::1            2                       # Occupied blocks per task id, per block age (Count)
system.cpu.icache.tags.ageTaskId_1024::2          236                       # Occupied blocks per task id, per block age (Count)
system.cpu.icache.tags.ratioOccsTaskId::1024            1                       # Ratio of occupied blocks and all blocks, per task id (Ratio)
system.cpu.icache.tags.tagAccesses             375653                       # Number of tag accesses (Count)
system.cpu.icache.tags.dataAccesses            375653                       # Number of data accesses (Count)
system.cpu.icache.tags.power_state.pwrStateResidencyTicks::UNDEFINED    473273000                       # Cumulative time (in ticks) in various power states (Tick)
system.cpu.iew.idleCycles                           0                       # Number of cycles IEW is idle (Cycle)
system.cpu.iew.squashCycles                      4116                       # Number of cycles IEW is squashing (Cycle)
system.cpu.iew.blockCycles                      15206                       # Number of cycles IEW is blocking (Cycle)
system.cpu.iew.unblockCycles                    15630                       # Number of cycles IEW is unblocking (Cycle)
system.cpu.iew.dispatchedInsts                1166359                       # Number of instructions dispatched to IQ (Count)
system.cpu.iew.dispSquashedInsts                  855                       # Number of squashed instructions skipped by dispatch (Count)
system.cpu.iew.dispLoadInsts                   185285                       # Number of dispatched load instructions (Count)
system.cpu.iew.dispStoreInsts                  135959                       # Number of dispatched store instructions (Count)
system.cpu.iew.dispNonSpecInsts                   504                       # Number of dispatched non-speculative instructions (Count)
system.cpu.iew.iqFullEvents                        72                       # Number of times the IQ has become full, causing a stall (Count)
system.cpu.iew.lsqFullEvents                    15581                       # Number of times the LSQ has become full, causing a stall (Count)
system.cpu.iew.memOrderViolationEvents             46                       # Number of memory order violations (Count)
system.cpu.iew.predictedTakenIncorrect           1459                       # Number of branches that were predicted taken incorrectly (Count)
system.cpu.iew.predictedNotTakenIncorrect         2826                       # Number of branches that were predicted not taken incorrectly (Count)
system.cpu.iew.branchMispredicts                 4285                       # Number of branch mispredicts detected at execute (Count)
system.cpu.iew.instsToCommit                  1144903                       # Cumulative count of insts sent to commit (Count)
system.cpu.iew.writebackCount                 1143665                       # Cumulative count of insts written-back (Count)
system.cpu.iew.producerInst                    554638                       # Number of instructions producing a value (Count)
system.cpu.iew.consumerInst                    956882                       # Number of instructions consuming a value (Count)
system.cpu.iew.wbRate                        1.208250                       # Insts written-back per cycle ((Count/Cycle))
system.cpu.iew.wbFanout                      0.579631                       # Average fanout of values written-back ((Count/Count))
system.cpu.lsq0.forwLoads                       10913                       # Number of loads that had data forwarded from stores (Count)
system.cpu.lsq0.squashedLoads                    8345                       # Number of loads squashed (Count)
system.cpu.lsq0.ignoredResponses                   50                       # Number of memory responses ignored because the instruction is squashed (Count)
system.cpu.lsq0.memOrderViolation                  46                       # Number of memory ordering violations (Count)
system.cpu.lsq0.squashedStores                   5450                       # Number of stores squashed (Count)
system.cpu.lsq0.rescheduledLoads                 4976                       # Number of loads that were rescheduled (Count)
system.cpu.lsq0.blockedByCache                     59                       # Number of times an access to memory failed due to the cache being blocked (Count)
system.cpu.lsq0.loadToUse::samples             175695                       # Distribution of cycle latency between the first time a load is issued and its completion (Unspecified)
system.cpu.lsq0.loadToUse::mean              4.000854                       # Distribution of cycle latency between the first time a load is issued and its completion (Unspecified)
system.cpu.lsq0.loadToUse::stdev            11.223984                       # Distribution of cycle latency between the first time a load is issued and its completion (Unspecified)
system.cpu.lsq0.loadToUse::0-9                 172848     98.38%     98.38% # Distribution of cycle latency between the first time a load is issued and its completion (Unspecified)
system.cpu.lsq0.loadToUse::10-19                 2023      1.15%     99.53% # Distribution of cycle latency between the first time a load is issued and its completion (Unspecified)
system.cpu.lsq0.loadToUse::20-29                    4      0.00%     99.53% # Distribution of cycle latency between the first time a load is issued and its completion (Unspecified)
system.cpu.lsq0.loadToUse::30-39                    5      0.00%     99.54% # Distribution of cycle latency between the first time a load is issued and its completion (Unspecified)
system.cpu.lsq0.loadToUse::40-49                   36      0.02%     99.56% # Distribution of cycle latency between the first time a load is issued and its completion (Unspecified)
system.cpu.lsq0.loadToUse::50-59                    8      0.00%     99.56% # Distribution of cycle latency between the first time a load is issued and its completion (Unspecified)
system.cpu.lsq0.loadToUse::60-69                    1      0.00%     99.56% # Distribution of cycle latency between the first time a load is issued and its completion (Unspecified)
system.cpu.lsq0.loadToUse::70-79                    2      0.00%     99.56% # Distribution of cycle latency between the first time a load is issued and its completion (Unspecified)
system.cpu.lsq0.loadToUse::80-89                    3      0.00%     99.56% # Distribution of cycle latency between the first time a load is issued and its completion (Unspecified)
system.cpu.lsq0.loadToUse::90-99                    6      0.00%     99.57% # Distribution of cycle latency between the first time a load is issued and its completion (Unspecified)
system.cpu.lsq0.loadToUse::100-109                  4      0.00%     99.57% # Distribution of cycle latency between the first time a load is issued and its completion (Unspecified)
[...]
system.mem_ctrls.dram.perBankWrBursts::8            0                       # Per bank write bursts (Count)
system.mem_ctrls.dram.perBankWrBursts::9            0                       # Per bank write bursts (Count)
system.mem_ctrls.dram.perBankWrBursts::10            0                       # Per bank write bursts (Count)
system.mem_ctrls.dram.perBankWrBursts::11            0                       # Per bank write bursts (Count)
system.mem_ctrls.dram.perBankWrBursts::12            0                       # Per bank write bursts (Count)
system.mem_ctrls.dram.perBankWrBursts::13            0                       # Per bank write bursts (Count)
system.mem_ctrls.dram.perBankWrBursts::14            0                       # Per bank write bursts (Count)
system.mem_ctrls.dram.perBankWrBursts::15            0                       # Per bank write bursts (Count)
system.mem_ctrls.dram.totQLat                12641000                       # Total ticks spent queuing (Tick)
system.mem_ctrls.dram.totBusLat               6880000                       # Total ticks spent in databus transfers (Tick)
system.mem_ctrls.dram.totMemAccLat           38441000                       # Total ticks spent from burst creation until serviced by the DRAM (Tick)
system.mem_ctrls.dram.avgQLat                 9186.77                       # Average queueing delay per DRAM burst ((Tick/Count))
system.mem_ctrls.dram.avgBusLat               5000.00                       # Average bus latency per DRAM burst ((Tick/Count))
system.mem_ctrls.dram.avgMemAccLat           27936.77                       # Average memory access latency per DRAM burst ((Tick/Count))
system.mem_ctrls.dram.readRowHits                 970                       # Number of row buffer hits during reads (Count)
system.mem_ctrls.dram.writeRowHits                  0                       # Number of row buffer hits during writes (Count)
system.mem_ctrls.dram.readRowHitRate            70.49                       # Row buffer hit rate for reads (Ratio)
system.mem_ctrls.dram.writeRowHitRate             nan                       # Row buffer hit rate for writes (Ratio)
system.mem_ctrls.dram.bytesPerActivate::samples          402                       # Bytes accessed per row activation (Byte)
system.mem_ctrls.dram.bytesPerActivate::mean   218.268657                       # Bytes accessed per row activation (Byte)
system.mem_ctrls.dram.bytesPerActivate::gmean   145.642566                       # Bytes accessed per row activation (Byte)
system.mem_ctrls.dram.bytesPerActivate::stdev   244.557777                       # Bytes accessed per row activation (Byte)
system.mem_ctrls.dram.bytesPerActivate::0-127          134     33.33%     33.33% # Bytes accessed per row activation (Byte)
system.mem_ctrls.dram.bytesPerActivate::128-255          174     43.28%     76.62% # Bytes accessed per row activation (Byte)
system.mem_ctrls.dram.bytesPerActivate::256-383           27      6.72%     83.33% # Bytes accessed per row activation (Byte)
system.mem_ctrls.dram.bytesPerActivate::384-511           16      3.98%     87.31% # Bytes accessed per row activation (Byte)
system.mem_ctrls.dram.bytesPerActivate::512-639           10      2.49%     89.80% # Bytes accessed per row activation (Byte)
system.mem_ctrls.dram.bytesPerActivate::640-767           13      3.23%     93.03% # Bytes accessed per row activation (Byte)
system.mem_ctrls.dram.bytesPerActivate::768-895            7      1.74%     94.78% # Bytes accessed per row activation (Byte)
system.mem_ctrls.dram.bytesPerActivate::896-1023            5      1.24%     96.02% # Bytes accessed per row activation (Byte)
system.mem_ctrls.dram.bytesPerActivate::1024-1151           16      3.98%    100.00% # Bytes accessed per row activation (Byte)
system.mem_ctrls.dram.bytesPerActivate::total          402                       # Bytes accessed per row activation (Byte)
system.mem_ctrls.dram.bytesRead                 88064                       # Total bytes read (Byte)
system.mem_ctrls.dram.bytesWritten                  0                       # Total bytes written (Byte)
system.mem_ctrls.dram.avgRdBW              186.074422                       # Average DRAM read bandwidth in MiBytes/s ((Byte/Second))
system.mem_ctrls.dram.avgWrBW                       0                       # Average DRAM write bandwidth in MiBytes/s ((Byte/Second))
system.mem_ctrls.dram.peakBW                 12800.00                       # Theoretical peak bandwidth in MiByte/s ((Byte/Second))
system.mem_ctrls.dram.busUtil                    1.45                       # Data bus utilization in percentage (Ratio)
system.mem_ctrls.dram.busUtilRead                1.45                       # Data bus utilization in percentage for reads (Ratio)
system.mem_ctrls.dram.busUtilWrite               0.00                       # Data bus utilization in percentage for writes (Ratio)
system.mem_ctrls.dram.pageHitRate               70.49                       # Row buffer hit rate, read and write combined (Ratio)
system.mem_ctrls.dram.power_state.pwrStateResidencyTicks::UNDEFINED    473273000                       # Cumulative time (in ticks) in various power states (Tick)
system.mem_ctrls.dram.rank0.actEnergy         1292340                       # Energy for activate commands per rank (pJ) (Joule)
system.mem_ctrls.dram.rank0.preEnergy          679305                       # Energy for precharge commands per rank (pJ) (Joule)
system.mem_ctrls.dram.rank0.readEnergy        5647740                       # Energy for read commands per rank (pJ) (Joule)
system.mem_ctrls.dram.rank0.writeEnergy             0                       # Energy for write commands per rank (pJ) (Joule)
system.mem_ctrls.dram.rank0.refreshEnergy 36878400.000000                       # Energy for refresh commands per rank (pJ) (Joule)
system.mem_ctrls.dram.rank0.actBackEnergy    132621330                       # Energy for active background per rank (pJ) (Joule)
system.mem_ctrls.dram.rank0.preBackEnergy     70056000                       # Energy for precharge background per rank (pJ) (Joule)
system.mem_ctrls.dram.rank0.actPowerDownEnergy            0                       # Energy for active power-down per rank (pJ) (Joule)
system.mem_ctrls.dram.rank0.prePowerDownEnergy            0                       # Energy for precharge power-down per rank (pJ) (Joule)
system.mem_ctrls.dram.rank0.selfRefreshEnergy            0                       # Energy for self refresh per rank (pJ) (Joule)
system.mem_ctrls.dram.rank0.totalEnergy     247175115                       # Total energy per rank (pJ) (Joule)
system.mem_ctrls.dram.rank0.averagePower   522.267518                       # Core power per rank (mW) (Watt)
system.mem_ctrls.dram.rank0.totalIdleTime            0                       # Total Idle time Per DRAM Rank (Tick)
system.mem_ctrls.dram.rank0.pwrStateTime::IDLE    180989750                       # Time in different power states (Tick)
system.mem_ctrls.dram.rank0.pwrStateTime::REF     15600000                       # Time in different power states (Tick)
system.mem_ctrls.dram.rank0.pwrStateTime::SREF            0                       # Time in different power states (Tick)
system.mem_ctrls.dram.rank0.pwrStateTime::PRE_PDN            0                       # Time in different power states (Tick)
system.mem_ctrls.dram.rank0.pwrStateTime::ACT    276683250                       # Time in different power states (Tick)
system.mem_ctrls.dram.rank0.pwrStateTime::ACT_PDN            0                       # Time in different power states (Tick)
system.mem_ctrls.dram.rank1.actEnergy         1606500                       # Energy for activate commands per rank (pJ) (Joule)
system.mem_ctrls.dram.rank1.preEnergy          846285                       # Energy for precharge commands per rank (pJ) (Joule)
system.mem_ctrls.dram.rank1.readEnergy        4176900                       # Energy for read commands per rank (pJ) (Joule)
system.mem_ctrls.dram.rank1.writeEnergy             0                       # Energy for write commands per rank (pJ) (Joule)
system.mem_ctrls.dram.rank1.refreshEnergy 36878400.000000                       # Energy for refresh commands per rank (pJ) (Joule)
system.mem_ctrls.dram.rank1.actBackEnergy    190892430                       # Energy for active background per rank (pJ) (Joule)
system.mem_ctrls.dram.rank1.preBackEnergy     20985600                       # Energy for precharge background per rank (pJ) (Joule)
system.mem_ctrls.dram.rank1.actPowerDownEnergy            0                       # Energy for active power-down per rank (pJ) (Joule)
system.mem_ctrls.dram.rank1.prePowerDownEnergy            0                       # Energy for precharge power-down per rank (pJ) (Joule)
system.mem_ctrls.dram.rank1.selfRefreshEnergy            0                       # Energy for self refresh per rank (pJ) (Joule)
system.mem_ctrls.dram.rank1.totalEnergy     255386115                       # Total energy per rank (pJ) (Joule)
system.mem_ctrls.dram.rank1.averagePower   539.616912                       # Core power per rank (mW) (Watt)
system.mem_ctrls.dram.rank1.totalIdleTime            0                       # Total Idle time Per DRAM Rank (Tick)
system.mem_ctrls.dram.rank1.pwrStateTime::IDLE     52956250                       # Time in different power states (Tick)
system.mem_ctrls.dram.rank1.pwrStateTime::REF     15600000                       # Time in different power states (Tick)
system.mem_ctrls.dram.rank1.pwrStateTime::SREF            0                       # Time in different power states (Tick)
system.mem_ctrls.dram.rank1.pwrStateTime::PRE_PDN            0                       # Time in different power states (Tick)
system.mem_ctrls.dram.rank1.pwrStateTime::ACT    404716750                       # Time in different power states (Tick)
system.mem_ctrls.dram.rank1.pwrStateTime::ACT_PDN            0                       # Time in different power states (Tick)
system.mem_ctrls.power_state.pwrStateResidencyTicks::UNDEFINED    473273000                       # Cumulative time (in ticks) in various power states (Tick)
system.membus.transDist::ReadResp                 986                       # Transaction distribution (Count)
system.membus.transDist::ReadExReq                390                       # Transaction distribution (Count)
system.membus.transDist::ReadExResp               390                       # Transaction distribution (Count)
system.membus.transDist::ReadSharedReq            986                       # Transaction distribution (Count)
system.membus.transDist::InvalidateReq              8                       # Transaction distribution (Count)
system.membus.pktCount_system.l2.mem_side_port::system.mem_ctrls.port         2760                       # Packet count per connected requestor and responder (Count)
system.membus.pktCount::total                    2760                       # Packet count per connected requestor and responder (Count)
system.membus.pktSize_system.l2.mem_side_port::system.mem_ctrls.port        88064                       # Cumulative packet size per connected requestor and responder (Byte)
system.membus.pktSize::total                    88064                       # Cumulative packet size per connected requestor and responder (Byte)
system.membus.snoops                                0                       # Total snoops (Count)
system.membus.snoopTraffic                          0                       # Total snoop traffic (Byte)
system.membus.snoopFanout::samples               1384                       # Request fanout histogram (Count)
system.membus.snoopFanout::mean                     0                       # Request fanout histogram (Count)
system.membus.snoopFanout::stdev                    0                       # Request fanout histogram (Count)
system.membus.snoopFanout::underflows               0      0.00%      0.00% # Request fanout histogram (Count)
system.membus.snoopFanout::0                     1384    100.00%    100.00% # Request fanout histogram (Count)
system.membus.snoopFanout::1                        0      0.00%    100.00% # Request fanout histogram (Count)
system.membus.snoopFanout::overflows                0      0.00%    100.00% # Request fanout histogram (Count)
system.membus.snoopFanout::min_value                0                       # Request fanout histogram (Count)
system.membus.snoopFanout::max_value                0                       # Request fanout histogram (Count)
system.membus.snoopFanout::total                 1384                       # Request fanout histogram (Count)
system.membus.power_state.pwrStateResidencyTicks::UNDEFINED    473273000                       # Cumulative time (in ticks) in various power states (Tick)
system.membus.reqLayer0.occupancy             1677000                       # Layer occupancy (ticks) (Tick)
system.membus.reqLayer0.utilization               0.0                       # Layer utilization (Ratio)
system.membus.respLayer1.occupancy            7322750                       # Layer occupancy (ticks) (Tick)
system.membus.respLayer1.utilization              0.0                       # Layer utilization (Ratio)
system.membus.snoop_filter.totRequests           1384                       # Total number of requests made to the snoop filter. (Count)
system.membus.snoop_filter.hitSingleRequests            0                       # Number of requests hitting in the snoop filter with a single holder of the requested data. (Count)
system.membus.snoop_filter.hitMultiRequests            0                       # Number of requests hitting in the snoop filter with multiple (>1) holders of the requested data. (Count)
system.membus.snoop_filter.totSnoops                0                       # Total number of snoops made to the snoop filter. (Count)
system.membus.snoop_filter.hitSingleSnoops            0                       # Number of snoops hitting in the snoop filter with a single holder of the requested data. (Count)
system.membus.snoop_filter.hitMultiSnoops            0                       # Number of snoops hitting in the snoop filter with multiple (>1) holders of the requested data. (Count)
system.tol2bus.transDist::ReadResp              10846                       # Transaction distribution (Count)
system.tol2bus.transDist::WritebackDirty           44                       # Transaction distribution (Count)
system.tol2bus.transDist::WritebackClean        10349                       # Transaction distribution (Count)
system.tol2bus.transDist::CleanEvict               16                       # Transaction distribution (Count)
system.tol2bus.transDist::ReadExReq               394                       # Transaction distribution (Count)
system.tol2bus.transDist::ReadExResp              394                       # Transaction distribution (Count)
system.tol2bus.transDist::ReadCleanReq          10606                       # Transaction distribution (Count)
system.tol2bus.transDist::ReadSharedReq           241                       # Transaction distribution (Count)
system.tol2bus.transDist::InvalidateReq             8                       # Transaction distribution (Count)
system.tol2bus.transDist::InvalidateResp            8                       # Transaction distribution (Count)
system.tol2bus.pktCount_system.cpu.icache.mem_side_port::system.l2.cpu_side_port        31560                       # Packet count per connected requestor and responder (Count)
system.tol2bus.pktCount_system.cpu.dcache.mem_side_port::system.l2.cpu_side_port         1346                       # Packet count per connected requestor and responder (Count)
system.tol2bus.pktCount::total                  32906                       # Packet count per connected requestor and responder (Count)
system.tol2bus.pktSize_system.cpu.icache.mem_side_port::system.l2.cpu_side_port      1341056                       # Cumulative packet size per connected requestor and responder (Byte)
system.tol2bus.pktSize_system.cpu.dcache.mem_side_port::system.l2.cpu_side_port        43456                       # Cumulative packet size per connected requestor and responder (Byte)
system.tol2bus.pktSize::total                 1384512                       # Cumulative packet size per connected requestor and responder (Byte)
system.tol2bus.snoops                               0                       # Total snoops (Count)
system.tol2bus.snoopTraffic                         0                       # Total snoop traffic (Byte)
system.tol2bus.snoopFanout::samples             11249                       # Request fanout histogram (Count)
system.tol2bus.snoopFanout::mean             0.000089                       # Request fanout histogram (Count)
system.tol2bus.snoopFanout::stdev            0.009429                       # Request fanout histogram (Count)
system.tol2bus.snoopFanout::underflows              0      0.00%      0.00% # Request fanout histogram (Count)
system.tol2bus.snoopFanout::0                   11248     99.99%     99.99% # Request fanout histogram (Count)
system.tol2bus.snoopFanout::1                       1      0.01%    100.00% # Request fanout histogram (Count)
system.tol2bus.snoopFanout::2                       0      0.00%    100.00% # Request fanout histogram (Count)
system.tol2bus.snoopFanout::overflows               0      0.00%    100.00% # Request fanout histogram (Count)
system.tol2bus.snoopFanout::min_value               0                       # Request fanout histogram (Count)
system.tol2bus.snoopFanout::max_value               1                       # Request fanout histogram (Count)
system.tol2bus.snoopFanout::total               11249                       # Request fanout histogram (Count)
system.tol2bus.power_state.pwrStateResidencyTicks::UNDEFINED    473273000                       # Cumulative time (in ticks) in various power states (Tick)
system.tol2bus.reqLayer0.occupancy           21222000                       # Layer occupancy (ticks) (Tick)
system.tol2bus.reqLayer0.utilization              0.0                       # Layer utilization (Ratio)
system.tol2bus.respLayer0.occupancy          15907500                       # Layer occupancy (ticks) (Tick)
system.tol2bus.respLayer0.utilization             0.0                       # Layer utilization (Ratio)
system.tol2bus.respLayer1.occupancy            956500                       # Layer occupancy (ticks) (Tick)
system.tol2bus.respLayer1.utilization             0.0                       # Layer utilization (Ratio)
system.tol2bus.snoop_filter.totRequests         21658                       # Total number of requests made to the snoop filter. (Count)
system.tol2bus.snoop_filter.hitSingleRequests        10409                       # Number of requests hitting in the snoop filter with a single holder of the requested data. (Count)
system.tol2bus.snoop_filter.hitMultiRequests            1                       # Number of requests hitting in the snoop filter with multiple (>1) holders of the requested data. (Count)
system.tol2bus.snoop_filter.totSnoops               0                       # Total number of snoops made to the snoop filter. (Count)
system.tol2bus.snoop_filter.hitSingleSnoops            0                       # Number of snoops hitting in the snoop filter with a single holder of the requested data. (Count)
system.tol2bus.snoop_filter.hitMultiSnoops            0                       # Number of snoops hitting in the snoop filter with multiple (>1) holders of the requested data. (Count)
system.voltage_domain.voltage                       1                       # Voltage in Volts (Volt)
system.workload.inst.arm                            0                       # number of arm instructions executed (Count)
system.workload.inst.quiesce                        0                       # number of quiesce instructions executed (Count)

---------- End Simulation Statistics   ----------
