
---------- Begin Simulation Statistics ----------
simSeconds                                   0.000434                       # Number of seconds simulated (Second)
simTicks                                    434498000                       # Number of ticks simulated (Tick)
finalTick                                   434498000                       # Number of ticks from beginning of simulation (restored from checkpoints and never reset) (Tick)
simFreq                                  1000000000000                       # The number of ticks per simulated second ((Tick/Second))
hostSeconds                                      4.40                       # Real time elapsed on the host (Second)
hostTickRate                                 98729921                       # The number of ticks simulated per host second (ticks/s) ((Tick/Second))
hostMemory                                    8726764                       # Number of bytes of host memory used (Byte)
simInsts                                      1000004                       # Number of instructions simulated (Count)
simOps                                        1055119                       # Number of ops (including micro ops) simulated (Count)
hostInstRate                                   227220                       # Simulator instruction rate (inst/s) ((Count/Second))
hostOpRate                                     239743                       # Simulator op (including micro ops) rate (op/s) ((Count/Second))
system.clk_domain.clock                          1000                       # Clock period in ticks (Tick)
system.cpu.numCycles                           868998                       # Number of cpu cycles simulated (Cycle)
system.cpu.numWorkItemsStarted                      0                       # Number of work items this cpu started (Count)
system.cpu.numWorkItemsCompleted                    0                       # Number of work items this cpu completed (Count)
system.cpu.instsAdded                         1195236                       # Number of instructions added to the IQ (excludes non-spec) (Count)
system.cpu.nonSpecInstsAdded                      135                       # Number of non-speculative instructions added to the IQ (Count)
system.cpu.instsIssued                        1168014                       # Number of instructions issued (Count)
system.cpu.squashedInstsIssued                    891                       # Number of squashed instructions issued (Count)
system.cpu.squashedInstsExamined               140237                       # Number of squashed instructions iterated over during squash; mainly for profiling (Count)
system.cpu.squashedOperandsExamined            124147                       # Number of squashed operands that are examined and possibly removed from graph (Count)
system.cpu.squashedNonSpecRemoved                  31                       # Number of squashed non-spec instructions that were removed (Count)
system.cpu.numIssuedDist::samples              800749                       # Number of insts issued each cycle (Count)
system.cpu.numIssuedDist::mean               1.458652                       # Number of insts issued each cycle (Count)
system.cpu.numIssuedDist::stdev              2.311964                       # Number of insts issued each cycle (Count)
system.cpu.numIssuedDist::underflows                0      0.00%      0.00% # Number of insts issued each cycle (Count)
system.cpu.numIssuedDist::0                    511105     63.83%     63.83% # Number of insts issued each cycle (Count)
system.cpu.numIssuedDist::1                     42140      5.26%     69.09% # Number of insts issued each cycle (Count)
system.cpu.numIssuedDist::2                     39374      4.92%     74.01% # Number of insts issued each cycle (Count)
system.cpu.numIssuedDist::3                     44821      5.60%     79.61% # Number of insts issued each cycle (Count)
system.cpu.numIssuedDist::4                     44039      5.50%     85.11% # Number of insts issued each cycle (Count)
system.cpu.numIssuedDist::5                     40226      5.02%     90.13% # Number of insts issued each cycle (Count)
system.cpu.numIssuedDist::6                     33188      4.14%     94.27% # Number of insts issued each cycle (Count)
system.cpu.numIssuedDist::7                     30599      3.82%     98.09% # Number of insts issued each cycle (Count)
system.cpu.numIssuedDist::8                     15257      1.91%    100.00% # Number of insts issued each cycle (Count)
system.cpu.numIssuedDist::overflows                 0      0.00%    100.00% # Number of insts issued each cycle (Count)
system.cpu.numIssuedDist::min_value                 0                       # Number of insts issued each cycle (Count)
system.cpu.numIssuedDist::max_value                 8                       # Number of insts issued each cycle (Count)
system.cpu.numIssuedDist::total                800749                       # Number of insts issued each cycle (Count)
system.cpu.statFuBusy::No_OpClass                   0      0.00%      0.00% # attempts to use FU when none available (Count)
system.cpu.statFuBusy::IntAlu                    2331     15.80%     15.80% # attempts to use FU when none available (Count)
system.cpu.statFuBusy::IntMult                      0      0.00%     15.80% # attempts to use FU when none available (Count)
system.cpu.statFuBusy::IntDiv                       0      0.00%     15.80% # attempts to use FU when none available (Count)
system.cpu.statFuBusy::FloatAdd                     0      0.00%     15.80% # attempts to use FU when none available (Count)
system.cpu.statFuBusy::FloatCmp                     0      0.00%     15.80% # attempts to use FU when none available (Count)
system.cpu.statFuBusy::FloatCvt                     0      0.00%     15.80% # attempts to use FU when none available (Count)
system.cpu.statFuBusy::FloatMult                   16      0.11%     15.90% # attempts to use FU when none available (Count)
system.cpu.statFuBusy::FloatMultAcc                 0      0.00%     15.90% # attempts to use FU when none available (Count)
system.cpu.statFuBusy::FloatDiv                    22      0.15%     16.05% # attempts to use FU when none available (Count)
system.cpu.statFuBusy::FloatMisc                   16      0.11%     16.16% # attempts to use FU when none available (Count)
system.cpu.statFuBusy::FloatSqrt                    0      0.00%     16.16% # attempts to use FU when none available (Count)
system.cpu.statFuBusy::SimdAdd                      0      0.00%     16.16% # attempts to use FU when none available (Count)
system.cpu.statFuBusy::SimdAddAcc                   0      0.00%     16.16% # attempts to use FU when none available (Count)
system.cpu.statFuBusy::SimdAlu                      1      0.01%     16.17% # attempts to use FU when none available (Count)
system.cpu.statFuBusy::SimdCmp                      2      0.01%     16.18% # attempts to use FU when none available (Count)
system.cpu.statFuBusy::SimdCvt                      0      0.00%     16.18% # attempts to use FU when none available (Count)
system.cpu.statFuBusy::SimdMisc                     0      0.00%     16.18% # attempts to use FU when none available (Count)
system.cpu.statFuBusy::SimdMult                     0      0.00%     16.18% # attempts to use FU when none available (Count)
system.cpu.statFuBusy::SimdMultAcc                  0      0.00%     16.18% # attempts to use FU when none available (Count)
system.cpu.statFuBusy::SimdShift                    0      0.00%     16.18% # attempts to use FU when none available (Count)
system.cpu.statFuBusy::SimdShiftAcc                 0      0.00%     16.18% # attempts to use FU when none available (Count)
system.cpu.statFuBusy::SimdDiv                      0      0.00%     16.18% # attempts to use FU when none available (Count)
system.cpu.statFuBusy::SimdSqrt                     0      0.00%     16.18% # attempts to use FU when none available (Count)
system.cpu.statFuBusy::SimdFloatAdd                 0      0.00%     16.18% # attempts to use FU when none available (Count)
system.cpu.statFuBusy::SimdFloatAlu                 0      0.00%     16.18% # attempts to use FU when none available (Count)
system.cpu.statFuBusy::SimdFloatCmp                 0      0.00%     16.18% # attempts to use FU when none available (Count)
system.cpu.statFuBusy::SimdFloatCvt                 0      0.00%     16.18% # attempts to use FU when none available (Count)
system.cpu.statFuBusy::SimdFloatDiv                 0      0.00%     16.18% # attempts to use FU when none available (Count)
system.cpu.statFuBusy::SimdFloatMisc                0      0.00%     16.18% # attempts to use FU when none available (Count)
system.cpu.statFuBusy::SimdFloatMult                0      0.00%     16.18% # attempts to use FU when none available (Count)
system.cpu.statFuBusy::SimdFloatMultAcc             0      0.00%     16.18% # attempts to use FU when none available (Count)
system.cpu.statFuBusy::SimdFloatSqrt                0      0.00%     16.18% # attempts to use FU when none available (Count)
system.cpu.statFuBusy::SimdReduceAdd                0      0.00%     16.18% # attempts to use FU when none available (Count)
system.cpu.statFuBusy::SimdReduceAlu                0      0.00%     16.18% # attempts to use FU when none available (Count)
system.cpu.statFuBusy::SimdReduceCmp                0      0.00%     16.18% # attempts to use FU when none available (Count)
system.cpu.statFuBusy::SimdFloatReduceAdd            0      0.00%     16.18% # attempts to use FU when none available (Count)
system.cpu.statFuBusy::SimdFloatReduceCmp            0      0.00%     16.18% # attempts to use FU when none available (Count)
system.cpu.statFuBusy::SimdAes                      0      0.00%     16.18% # attempts to use FU when none available (Count)
system.cpu.statFuBusy::SimdAesMix                   0      0.00%     16.18% # attempts to use FU when none available (Count)
system.cpu.statFuBusy::SimdSha1Hash                 0      0.00%     16.18% # attempts to use FU when none available (Count)
system.cpu.statFuBusy::SimdSha1Hash2                0      0.00%     16.18% # attempts to use FU when none available (Count)
system.cpu.statFuBusy::SimdSha256Hash               0      0.00%     16.18% # attempts to use FU when none available (Count)
system.cpu.statFuBusy::SimdSha256Hash2              0      0.00%     16.18% # attempts to use FU when none available (Count)
system.cpu.statFuBusy::SimdShaSigma2                0      0.00%     16.18% # attempts to use FU when none available (Count)
system.cpu.statFuBusy::SimdShaSigma3                0      0.00%     16.18% # attempts to use FU when none available (Count)
system.cpu.statFuBusy::SimdPredAlu                  0      0.00%     16.18% # attempts to use FU when none available (Count)
system.cpu.statFuBusy::MemRead                   9469     64.17%     80.35% # attempts to use FU when none available (Count)
system.cpu.statFuBusy::MemWrite                  2900     19.65%    100.00% # attempts to use FU when none available (Count)
system.cpu.statFuBusy::FloatMemRead                 0      0.00%    100.00% # attempts to use FU when none available (Count)
system.cpu.statFuBusy::FloatMemWrite                0      0.00%    100.00% # attempts to use FU when none available (Count)
system.cpu.statFuBusy::IprAccess                    0      0.00%    100.00% # attempts to use FU when none available (Count)
system.cpu.statFuBusy::InstPrefetch                 0      0.00%    100.00% # attempts to use FU when none available (Count)
system.cpu.statIssuedInstType_0::No_OpClass            6      0.00%      0.00% # Number of instructions issued per FU type, per thread (Count)
system.cpu.statIssuedInstType_0::IntAlu        646630     55.36%     55.36% # Number of instructions issued per FU type, per thread (Count)
system.cpu.statIssuedInstType_0::IntMult         9401      0.80%     56.17% # Number of instructions issued per FU type, per thread (Count)
system.cpu.statIssuedInstType_0::IntDiv             6      0.00%     56.17% # Number of instructions issued per FU type, per thread (Count)
system.cpu.statIssuedInstType_0::FloatAdd         1005      0.09%     56.25% # Number of instructions issued per FU type, per thread (Count)
system.cpu.statIssuedInstType_0::FloatCmp            1      0.00%     56.25% # Number of instructions issued per FU type, per thread (Count)
system.cpu.statIssuedInstType_0::FloatCvt         1680      0.14%     56.40% # Number of instructions issued per FU type, per thread (Count)
system.cpu.statIssuedInstType_0::FloatMult           11      0.00%     56.40% # Number of instructions issued per FU type, per thread (Count)
system.cpu.statIssuedInstType_0::FloatMultAcc           17      0.00%     56.40% # Number of instructions issued per FU type, per thread (Count)
system.cpu.statIssuedInstType_0::FloatDiv          192      0.02%     56.42% # Number of instructions issued per FU type, per thread (Count)
system.cpu.statIssuedInstType_0::FloatMisc         1255      0.11%     56.52% # Number of instructions issued per FU type, per thread (Count)
system.cpu.statIssuedInstType_0::FloatSqrt            0      0.00%     56.52% # Number of instructions issued per FU type, per thread (Count)
system.cpu.statIssuedInstType_0::SimdAdd           24      0.00%     56.53% # Number of instructions issued per FU type, per thread (Count)
system.cpu.statIssuedInstType_0::SimdAddAcc            0      0.00%     56.53% # Number of instructions issued per FU type, per thread (Count)
system.cpu.statIssuedInstType_0::SimdAlu           22      0.00%     56.53% # Number of instructions issued per FU type, per thread (Count)
system.cpu.statIssuedInstType_0::SimdCmp           23      0.00%     56.53% # Number of instructions issued per FU type, per thread (Count)
system.cpu.statIssuedInstType_0::SimdCvt            4      0.00%     56.53% # Number of instructions issued per FU type, per thread (Count)
system.cpu.statIssuedInstType_0::SimdMisc           18      0.00%     56.53% # Number of instructions issued per FU type, per thread (Count)
system.cpu.statIssuedInstType_0::SimdMult            0      0.00%     56.53% # Number of instructions issued per FU type, per thread (Count)
system.cpu.statIssuedInstType_0::SimdMultAcc            0      0.00%     56.53% # Number of instructions issued per FU type, per thread (Count)
system.cpu.statIssuedInstType_0::SimdShift            0      0.00%     56.53% # Number of instructions issued per FU type, per thread (Count)
system.cpu.statIssuedInstType_0::SimdShiftAcc            0      0.00%     56.53% # Number of instructions issued per FU type, per thread (Count)
system.cpu.statIssuedInstType_0::SimdDiv            0      0.00%     56.53% # Number of instructions issued per FU type, per thread (Count)
system.cpu.statIssuedInstType_0::SimdSqrt            0      0.00%     56.53% # Number of instructions issued per FU type, per thread (Count)
system.cpu.statIssuedInstType_0::SimdFloatAdd            0      0.00%     56.53% # Number of instructions issued per FU type, per thread (Count)
system.cpu.statIssuedInstType_0::SimdFloatAlu            0      0.00%     56.53% # Number of instructions issued per FU type, per thread (Count)
system.cpu.statIssuedInstType_0::SimdFloatCmp            0      0.00%     56.53% # Number of instructions issued per FU type, per thread (Count)
system.cpu.statIssuedInstType_0::SimdFloatCvt            0      0.00%     56.53% # Number of instructions issued per FU type, per thread (Count)
system.cpu.statIssuedInstType_0::SimdFloatDiv            0      0.00%     56.53% # Number of instructions issued per FU type, per thread (Count)
system.cpu.statIssuedInstType_0::SimdFloatMisc            0      0.00%     56.53% # Number of instructions issued per FU type, per thread (Count)
system.cpu.statIssuedInstType_0::SimdFloatMult            0      0.00%     56.53% # Number of instructions issued per FU type, per thread (Count)
system.cpu.statIssuedInstType_0::SimdFloatMultAcc            0      0.00%     56.53% # Number of instructions issued per FU type, per thread (Count)
system.cpu.statIssuedInstType_0::SimdFloatSqrt            0      0.00%     56.53% # Number of instructions issued per FU type, per thread (Count)
system.cpu.statIssuedInstType_0::SimdReduceAdd            0      0.00%     56.53% # Number of instructions issued per FU type, per thread (Count)
system.cpu.statIssuedInstType_0::SimdReduceAlu            0      0.00%     56.53% # Number of instructions issued per FU type, per thread (Count)
system.cpu.statIssuedInstType_0::SimdReduceCmp            0      0.00%     56.53% # Number of instructions issued per FU type, per thread (Count)
system.cpu.statIssuedInstType_0::SimdFloatReduceAdd            0      0.00%     56.53% # Number of instructions issued per FU type, per thread (Count)
system.cpu.statIssuedInstType_0::SimdFloatReduceCmp            0      0.00%     56.53% # Number of instructions issued per FU type, per thread (Count)
system.cpu.statIssuedInstType_0::SimdAes            0      0.00%     56.53% # Number of instructions issued per FU type, per thread (Count)
system.cpu.statIssuedInstType_0::SimdAesMix            0      0.00%     56.53% # Number of instructions issued per FU type, per thread (Count)
system.cpu.statIssuedInstType_0::SimdSha1Hash            0      0.00%     56.53% # Number of instructions issued per FU type, per thread (Count)
system.cpu.statIssuedInstType_0::SimdSha1Hash2            0      0.00%     56.53% # Number of instructions issued per FU type, per thread (Count)
system.cpu.statIssuedInstType_0::SimdSha256Hash            0      0.00%     56.53% # Number of instructions issued per FU type, per thread (Count)
system.cpu.statIssuedInstType_0::SimdSha256Hash2            0      0.00%     56.53% # Number of instructions issued per FU type, per thread (Count)
system.cpu.statIssuedInstType_0::SimdShaSigma2            0      0.00%     56.53% # Number of instructions issued per FU type, per thread (Count)
system.cpu.statIssuedInstType_0::SimdShaSigma3            0      0.00%     56.53% # Number of instructions issued per FU type, per thread (Count)
system.cpu.statIssuedInstType_0::SimdPredAlu            0      0.00%     56.53% # Number of instructions issued per FU type, per thread (Count)
system.cpu.statIssuedInstType_0::MemRead       361839     30.98%     87.51% # Number of instructions issued per FU type, per thread (Count)
system.cpu.statIssuedInstType_0::MemWrite       145880     12.49%    100.00% # Number of instructions issued per FU type, per thread (Count)
system.cpu.statIssuedInstType_0::FloatMemRead            0      0.00%    100.00% # Number of instructions issued per FU type, per thread (Count)
system.cpu.statIssuedInstType_0::FloatMemWrite            0      0.00%    100.00% # Number of instructions issued per FU type, per thread (Count)
system.cpu.statIssuedInstType_0::IprAccess            0      0.00%    100.00% # Number of instructions issued per FU type, per thread (Count)
system.cpu.statIssuedInstType_0::InstPrefetch            0      0.00%    100.00% # Number of instructions issued per FU type, per thread (Count)
system.cpu.statIssuedInstType_0::total        1168014                       # Number of instructions issued per FU type, per thread (Count)
system.cpu.issueRate                         1.344093                       # Inst issue rate ((Count/Cycle))
system.cpu.fuBusy                               14757                       # FU busy when requested (Count)
system.cpu.fuBusyRate                        0.012634                       # FU busy rate (busy events/executed inst) ((Count/Count))
system.cpu.intInstQueueReads                  3142543                       # Number of integer instruction queue reads (Count)
system.cpu.intInstQueueWrites                 1327338                       # Number of integer instruction queue writes (Count)
system.cpu.intInstQueueWakeupAccesses         1131577                       # Number of integer instruction queue wakeup accesses (Count)
system.cpu.fpInstQueueReads                         0                       # Number of floating instruction queue reads (Count)
system.cpu.fpInstQueueWrites                        0                       # Number of floating instruction queue writes (Count)
system.cpu.fpInstQueueWakeupAccesses                0                       # Number of floating instruction queue wakeup accesses (Count)
system.cpu.vecInstQueueReads                     9881                       # Number of vector instruction queue reads (Count)
system.cpu.vecInstQueueWrites                    8328                       # Number of vector instruction queue writes (Count)
system.cpu.vecInstQueueWakeupAccesses            4587                       # Number of vector instruction queue wakeup accesses (Count)
system.cpu.intAluAccesses                     1177827                       # Number of integer alu accesses (Count)
system.cpu.fpAluAccesses                            0                       # Number of floating point alu accesses (Count)
system.cpu.vecAluAccesses                        4938                       # Number of vector alu accesses (Count)
system.cpu.numInsts                           1161813                       # Number of executed instructions (Count)
system.cpu.numLoadInsts                        359312                       # Number of load instructions executed (Count)
system.cpu.numSquashedInsts                      6200                       # Number of squashed instructions skipped in execute (Count)
system.cpu.numSwp                                   0                       # Number of swp insts executed (Count)
system.cpu.numNop                                1778                       # Number of nop insts executed (Count)
system.cpu.numRefs                             504195                       # Number of memory reference insts executed (Count)
system.cpu.numBranches                         142720                       # Number of branches executed (Count)
system.cpu.numStoreInsts                       144883                       # Number of stores executed (Count)
system.cpu.numRate                           1.336957                       # Inst execution rate ((Count/Cycle))
system.cpu.timesIdled                             721                       # Number of times that the entire CPU went into an idle state and unscheduled itself (Count)
system.cpu.idleCycles                           68249                       # Total number of cycles that the CPU has spent unscheduled due to idling (Cycle)
system.cpu.committedInsts                     1000004                       # Number of Instructions Simulated (Count)
system.cpu.committedOps                       1055119                       # Number of Ops (including micro ops) Simulated (Count)
system.cpu.cpi                               0.868995                       # CPI: Cycles Per Instruction ((Cycle/Count))
system.cpu.totalCpi                          0.868995                       # CPI: Total CPI of All Threads ((Cycle/Count))
system.cpu.ipc                               1.150755                       # IPC: Instructions Per Cycle ((Count/Cycle))
system.cpu.totalIpc                          1.150755                       # IPC: Total IPC of All Threads ((Count/Cycle))
system.cpu.intRegfileReads                    1536516                       # Number of integer regfile reads (Count)
system.cpu.intRegfileWrites                    784751                       # Number of integer regfile writes (Count)
system.cpu.vecRegfileReads                       7138                       # number of vector regfile reads (Count)
system.cpu.ccRegfileReads                      346650                       # number of cc regfile reads (Count)
system.cpu.ccRegfileWrites                     348259                       # number of cc regfile writes (Count)
system.cpu.miscRegfileReads                    337867                       # number of misc regfile reads (Count)
system.cpu.miscRegfileWrites                     2504                       # number of misc regfile writes (Count)
system.cpu.MemDepUnit__0.insertedLoads         357308                       # Number of loads inserted to the mem dependence unit. (Count)
system.cpu.MemDepUnit__0.insertedStores        151670                       # Number of stores inserted to the mem dependence unit. (Count)
system.cpu.MemDepUnit__0.conflictingLoads         1445                       # Number of conflicting loads. (Count)
system.cpu.MemDepUnit__0.conflictingStores         4364                       # Number of conflicting stores. (Count)
system.cpu.MemDepUnit__1.insertedLoads              0                       # Number of loads inserted to the mem dependence unit. (Count)
system.cpu.MemDepUnit__1.insertedStores             0                       # Number of stores inserted to the mem dependence unit. (Count)
system.cpu.MemDepUnit__1.conflictingLoads            0                       # Number of conflicting loads. (Count)
system.cpu.MemDepUnit__1.conflictingStores            0                       # Number of conflicting stores. (Count)
system.cpu.MemDepUnit__2.insertedLoads              0                       # Number of loads inserted to the mem dependence unit. (Count)
system.cpu.MemDepUnit__2.insertedStores             0                       # Number of stores inserted to the mem dependence unit. (Count)
system.cpu.MemDepUnit__2.conflictingLoads            0                       # Number of conflicting loads. (Count)
system.cpu.MemDepUnit__2.conflictingStores            0                       # Number of conflicting stores. (Count)
system.cpu.MemDepUnit__3.insertedLoads              0                       # Number of loads inserted to the mem dependence unit. (Count)
system.cpu.MemDepUnit__3.insertedStores             0                       # Number of stores inserted to the mem dependence unit. (Count)
system.cpu.MemDepUnit__3.conflictingLoads            0                       # Number of conflicting loads. (Count)
system.cpu.MemDepUnit__3.conflictingStores            0                       # Number of conflicting stores. (Count)
system.cpu.branchPred.lookups                  162667                       # Number of BP lookups (Count)
system.cpu.branchPred.condPredicted            145244                       # Number of conditional branches predicted (Count)
system.cpu.branchPred.condIncorrect              3378                       # Number of conditional branches incorrect (Count)
system.cpu.branchPred.BTBLookups               122004                       # Number of BTB lookups (Count)
system.cpu.branchPred.BTBHits                  120214                       # Number of BTB hits (Count)
system.cpu.branchPred.BTBHitRatio            0.985328                       # BTB Hit Ratio (Ratio)
system.cpu.branchPred.RASUsed                    6732                       # Number of times the RAS was used to get a target. (Count)
system.cpu.branchPred.RASIncorrect                  2                       # Number of incorrect RAS predictions. (Count)
system.cpu.branchPred.indirectLookups             315                       # Number of indirect predictor lookups. (Count)
system.cpu.branchPred.indirectHits                 24                       # Number of indirect target hits. (Count)
system.cpu.branchPred.indirectMisses              291                       # Number of indirect misses. (Count)
system.cpu.branchPred.indirectMispredicted           80                       # Number of mispredicted indirect branches. (Count)
system.cpu.commit.commitSquashedInsts          137900                       # The number of squashed insts skipped by commit (Count)
system.cpu.commit.commitNonSpecStalls             104                       # The number of times commit has been forced to stall to communicate backwards (Count)
system.cpu.commit.branchMispredicts              2942                       # The number of times a branch was mispredicted (Count)
system.cpu.commit.numCommittedDist::samples       781630                       # Number of insts commited each cycle (Count)
system.cpu.commit.numCommittedDist::mean     1.351633                       # Number of insts commited each cycle (Count)
system.cpu.commit.numCommittedDist::stdev     2.674377                       # Number of insts commited each cycle (Count)
system.cpu.commit.numCommittedDist::underflows            0      0.00%      0.00% # Number of insts commited each cycle (Count)
system.cpu.commit.numCommittedDist::0          554796     70.98%     70.98% # Number of insts commited each cycle (Count)
system.cpu.commit.numCommittedDist::1           60658      7.76%     78.74% # Number of insts commited each cycle (Count)
system.cpu.commit.numCommittedDist::2           24678      3.16%     81.90% # Number of insts commited each cycle (Count)
system.cpu.commit.numCommittedDist::3           17304      2.21%     84.11% # Number of insts commited each cycle (Count)
system.cpu.commit.numCommittedDist::4           15735      2.01%     86.12% # Number of insts commited each cycle (Count)
system.cpu.commit.numCommittedDist::5            5738      0.73%     86.86% # Number of insts commited each cycle (Count)
system.cpu.commit.numCommittedDist::6            8326      1.07%     87.92% # Number of insts commited each cycle (Count)
system.cpu.commit.numCommittedDist::7            2195      0.28%     88.20% # Number of insts commited each cycle (Count)
system.cpu.commit.numCommittedDist::8           92200     11.80%    100.00% # Number of insts commited each cycle (Count)
system.cpu.commit.numCommittedDist::overflows            0      0.00%    100.00% # Number of insts commited each cycle (Count)
system.cpu.commit.numCommittedDist::min_value            0                       # Number of insts commited each cycle (Count)
system.cpu.commit.numCommittedDist::max_value            8                       # Number of insts commited each cycle (Count)
system.cpu.commit.numCommittedDist::total       781630                       # Number of insts commited each cycle (Count)
system.cpu.commit.instsCommitted              1001362                       # Number of instructions committed (Count)
system.cpu.commit.opsCommitted                1056477                       # Number of ops (including micro ops) committed (Count)
system.cpu.commit.memRefs                      459893                       # Number of memory references committed (Count)
system.cpu.commit.loads                        328671                       # Number of loads committed (Count)
system.cpu.commit.amos                              0                       # Number of atomic instructions committed (Count)
system.cpu.commit.membars                          62                       # Number of memory barriers committed (Count)
system.cpu.commit.branches                     128619                       # Number of branches committed (Count)
system.cpu.commit.vectorInstructions             3436                       # Number of committed Vector instructions. (Count)
system.cpu.commit.floating                          0                       # Number of committed floating point instructions. (Count)
system.cpu.commit.integer                      950100                       # Number of committed integer instructions. (Count)
system.cpu.commit.functionCalls                  4469                       # Number of function calls committed. (Count)
system.cpu.commit.committedInstType_0::No_OpClass            4      0.00%      0.00% # Class of committed instruction (Count)
system.cpu.commit.committedInstType_0::IntAlu       585823     55.45%     55.45% # Class of committed instruction (Count)
system.cpu.commit.committedInstType_0::IntMult         7684      0.73%     56.18% # Class of committed instruction (Count)
system.cpu.commit.committedInstType_0::IntDiv            5      0.00%     56.18% # Class of committed instruction (Count)
system.cpu.commit.committedInstType_0::FloatAdd          740      0.07%     56.25% # Class of committed instruction (Count)
system.cpu.commit.committedInstType_0::FloatCmp            1      0.00%     56.25% # Class of committed instruction (Count)
system.cpu.commit.committedInstType_0::FloatCvt         1354      0.13%     56.38% # Class of committed instruction (Count)
system.cpu.commit.committedInstType_0::FloatMult           10      0.00%     56.38% # Class of committed instruction (Count)
system.cpu.commit.committedInstType_0::FloatMultAcc           17      0.00%     56.38% # Class of committed instruction (Count)
system.cpu.commit.committedInstType_0::FloatDiv          130      0.01%     56.39% # Class of committed instruction (Count)
system.cpu.commit.committedInstType_0::FloatMisc          744      0.07%     56.46% # Class of committed instruction (Count)
system.cpu.commit.committedInstType_0::FloatSqrt            0      0.00%     56.46% # Class of committed instruction (Count)
system.cpu.commit.committedInstType_0::SimdAdd           18      0.00%     56.46% # Class of committed instruction (Count)
system.cpu.commit.committedInstType_0::SimdAddAcc            0      0.00%     56.46% # Class of committed instruction (Count)
system.cpu.commit.committedInstType_0::SimdAlu           18      0.00%     56.47% # Class of committed instruction (Count)
system.cpu.commit.committedInstType_0::SimdCmp           16      0.00%     56.47% # Class of committed instruction (Count)
system.cpu.commit.committedInstType_0::SimdCvt            4      0.00%     56.47% # Class of committed instruction (Count)
system.cpu.commit.committedInstType_0::SimdMisc           16      0.00%     56.47% # Class of committed instruction (Count)
system.cpu.commit.committedInstType_0::SimdMult            0      0.00%     56.47% # Class of committed instruction (Count)
system.cpu.commit.committedInstType_0::SimdMultAcc            0      0.00%     56.47% # Class of committed instruction (Count)
system.cpu.commit.committedInstType_0::SimdShift            0      0.00%     56.47% # Class of committed instruction (Count)
system.cpu.commit.committedInstType_0::SimdShiftAcc            0      0.00%     56.47% # Class of committed instruction (Count)
system.cpu.commit.committedInstType_0::SimdDiv            0      0.00%     56.47% # Class of committed instruction (Count)
system.cpu.commit.committedInstType_0::SimdSqrt            0      0.00%     56.47% # Class of committed instruction (Count)
system.cpu.commit.committedInstType_0::SimdFloatAdd            0      0.00%     56.47% # Class of committed instruction (Count)
system.cpu.commit.committedInstType_0::SimdFloatAlu            0      0.00%     56.47% # Class of committed instruction (Count)
system.cpu.commit.committedInstType_0::SimdFloatCmp            0      0.00%     56.47% # Class of committed instruction (Count)
system.cpu.commit.committedInstType_0::SimdFloatCvt            0      0.00%     56.47% # Class of committed instruction (Count)
system.cpu.commit.committedInstType_0::SimdFloatDiv            0      0.00%     56.47% # Class of committed instruction (Count)
system.cpu.commit.committedInstType_0::SimdFloatMisc            0      0.00%     56.47% # Class of committed instruction (Count)
system.cpu.commit.committedInstType_0::SimdFloatMult            0      0.00%     56.47% # Class of committed instruction (Count)
system.cpu.commit.committedInstType_0::SimdFloatMultAcc            0      0.00%     56.47% # Class of committed instruction (Count)
system.cpu.commit.committedInstType_0::SimdFloatSqrt            0      0.00%     56.47% # Class of committed instruction (Count)
system.cpu.commit.committedInstType_0::SimdReduceAdd            0      0.00%     56.47% # Class of committed instruction (Count)
system.cpu.commit.committedInstType_0::SimdReduceAlu            0      0.00%     56.47% # Class of committed instruction (Count)
system.cpu.commit.committedInstType_0::SimdReduceCmp            0      0.00%     56.47% # Class of committed instruction (Count)
system.cpu.commit.committedInstType_0::SimdFloatReduceAdd            0      0.00%     56.47% # Class of committed instruction (Count)
system.cpu.commit.committedInstType_0::SimdFloatReduceCmp            0      0.00%     56.47% # Class of committed instruction (Count)
system.cpu.commit.committedInstType_0::SimdAes            0      0.00%     56.47% # Class of committed instruction (Count)
system.cpu.commit.committedInstType_0::SimdAesMix            0      0.00%     56.47% # Class of committed instruction (Count)
system.cpu.commit.committedInstType_0::SimdSha1Hash            0      0.00%     56.47% # Class of committed instruction (Count)
system.cpu.commit.committedInstType_0::SimdSha1Hash2            0      0.00%     56.47% # Class of committed instruction (Count)
system.cpu.commit.committedInstType_0::SimdSha256Hash            0      0.00%     56.47% # Class of committed instruction (Count)
system.cpu.commit.committedInstType_0::SimdSha256Hash2            0      0.00%     56.47% # Class of committed instruction (Count)
system.cpu.commit.committedInstType_0::SimdShaSigma2            0      0.00%     56.47% # Class of committed instruction (Count)
system.cpu.commit.committedInstType_0::SimdShaSigma3            0      0.00%     56.47% # Class of committed instruction (Count)
system.cpu.commit.committedInstType_0::SimdPredAlu            0      0.00%     56.47% # Class of committed instruction (Count)
system.cpu.commit.committedInstType_0::MemRead       328671     31.11%     87.58% # Class of committed instruction (Count)
system.cpu.commit.committedInstType_0::MemWrite       131222     12.42%    100.00% # Class of committed instruction (Count)
system.cpu.commit.committedInstType_0::FloatMemRead            0      0.00%    100.00% # Class of committed instruction (Count)
system.cpu.commit.committedInstType_0::FloatMemWrite            0      0.00%    100.00% # Class of committed instruction (Count)
system.cpu.commit.committedInstType_0::IprAccess            0      0.00%    100.00% # Class of committed instruction (Count)
system.cpu.commit.committedInstType_0::InstPrefetch            0      0.00%    100.00% # Class of committed instruction (Count)
system.cpu.commit.committedInstType_0::total      1056477                       # Class of committed instruction (Count)
system.cpu.commit.commitEligibleSamples         92200                       # number cycles where commit BW limit reached (Cycle)
system.cpu.dcache.demandHits::cpu.data         424693                       # number of demand (read+write) hits (Count)
system.cpu.dcache.demandHits::total            424693                       # number of demand (read+write) hits (Count)
system.cpu.dcache.overallHits::cpu.data        424719                       # number of overall hits (Count)
system.cpu.dcache.overallHits::total           424719                       # number of overall hits (Count)
system.cpu.dcache.demandMisses::cpu.data        49793                       # number of demand (read+write) misses (Count)
system.cpu.dcache.demandMisses::total           49793                       # number of demand (read+write) misses (Count)
system.cpu.dcache.overallMisses::cpu.data        49796                       # number of overall misses (Count)
system.cpu.dcache.overallMisses::total          49796                       # number of overall misses (Count)
system.cpu.dcache.demandMissLatency::cpu.data   1658177806                       # number of demand (read+write) miss ticks (Tick)
system.cpu.dcache.demandMissLatency::total   1658177806                       # number of demand (read+write) miss ticks (Tick)
system.cpu.dcache.overallMissLatency::cpu.data   1658177806                       # number of overall miss ticks (Tick)
system.cpu.dcache.overallMissLatency::total   1658177806                       # number of overall miss ticks (Tick)
system.cpu.dcache.demandAccesses::cpu.data       474486                       # number of demand (read+write) accesses (Count)
system.cpu.dcache.demandAccesses::total        474486                       # number of demand (read+write) accesses (Count)
system.cpu.dcache.overallAccesses::cpu.data       474515                       # number of overall (read+write) accesses (Count)
system.cpu.dcache.overallAccesses::total       474515                       # number of overall (read+write) accesses (Count)
system.cpu.dcache.demandMissRate::cpu.data     0.104941                       # miss rate for demand accesses (Ratio)
system.cpu.dcache.demandMissRate::total      0.104941                       # miss rate for demand accesses (Ratio)
system.cpu.dcache.overallMissRate::cpu.data     0.104941                       # miss rate for overall accesses (Ratio)
system.cpu.dcache.overallMissRate::total     0.104941                       # miss rate for overall accesses (Ratio)
system.cpu.dcache.demandAvgMissLatency::cpu.data 33301.424015                       # average overall miss latency in ticks ((Tick/Count))
system.cpu.dcache.demandAvgMissLatency::total 33301.424015                       # average overall miss latency in ticks ((Tick/Count))
system.cpu.dcache.overallAvgMissLatency::cpu.data 33299.417744                       # average overall miss latency ((Tick/Count))
system.cpu.dcache.overallAvgMissLatency::total 33299.417744                       # average overall miss latency ((Tick/Count))
system.cpu.dcache.blockedCycles::no_mshrs       227851                       # number of cycles access was blocked (Cycle)
system.cpu.dcache.blockedCycles::no_targets          546                       # number of cycles access was blocked (Cycle)
system.cpu.dcache.blockedCauses::no_mshrs        14313                       # number of times access was blocked (Count)
system.cpu.dcache.blockedCauses::no_targets           11                       # number of times access was blocked (Count)
system.cpu.dcache.avgBlocked::no_mshrs      15.919164                       # average number of cycles each access was blocked ((Cycle/Count))
system.cpu.dcache.avgBlocked::no_targets    49.636364                       # average number of cycles each access was blocked ((Cycle/Count))
system.cpu.dcache.writebacks::writebacks        17569                       # number of writebacks (Count)
system.cpu.dcache.writebacks::total             17569                       # number of writebacks (Count)
system.cpu.dcache.demandMshrHits::cpu.data        30076                       # number of demand (read+write) MSHR hits (Count)
system.cpu.dcache.demandMshrHits::total         30076                       # number of demand (read+write) MSHR hits (Count)
system.cpu.dcache.overallMshrHits::cpu.data        30076                       # number of overall MSHR hits (Count)
system.cpu.dcache.overallMshrHits::total        30076                       # number of overall MSHR hits (Count)
system.cpu.dcache.demandMshrMisses::cpu.data        19717                       # number of demand (read+write) MSHR misses (Count)
system.cpu.dcache.demandMshrMisses::total        19717                       # number of demand (read+write) MSHR misses (Count)
system.cpu.dcache.overallMshrMisses::cpu.data        19720                       # number of overall MSHR misses (Count)
system.cpu.dcache.overallMshrMisses::total        19720                       # number of overall MSHR misses (Count)
system.cpu.dcache.demandMshrMissLatency::cpu.data    677450462                       # number of demand (read+write) MSHR miss ticks (Tick)
system.cpu.dcache.demandMshrMissLatency::total    677450462                       # number of demand (read+write) MSHR miss ticks (Tick)
system.cpu.dcache.overallMshrMissLatency::cpu.data    677706462                       # number of overall MSHR miss ticks (Tick)
system.cpu.dcache.overallMshrMissLatency::total    677706462                       # number of overall MSHR miss ticks (Tick)
system.cpu.dcache.demandMshrMissRate::cpu.data     0.041554                       # mshr miss ratio for demand accesses (Ratio)
system.cpu.dcache.demandMshrMissRate::total     0.041554                       # mshr miss ratio for demand accesses (Ratio)
system.cpu.dcache.overallMshrMissRate::cpu.data     0.041558                       # mshr miss ratio for overall accesses (Ratio)
system.cpu.dcache.overallMshrMissRate::total     0.041558                       # mshr miss ratio for overall accesses (Ratio)
system.cpu.dcache.demandAvgMshrMissLatency::cpu.data 34358.698686                       # average overall mshr miss latency ((Tick/Count))
system.cpu.dcache.demandAvgMshrMissLatency::total 34358.698686                       # average overall mshr miss latency ((Tick/Count))
system.cpu.dcache.overallAvgMshrMissLatency::cpu.data 34366.453448                       # average overall mshr miss latency ((Tick/Count))
system.cpu.dcache.overallAvgMshrMissLatency::total 34366.453448                       # average overall mshr miss latency ((Tick/Count))
system.cpu.dcache.replacements                  18696                       # number of replacements (Count)
system.cpu.dcache.LoadLockedReq.hits::cpu.data           73                       # number of LoadLockedReq hits (Count)
system.cpu.dcache.LoadLockedReq.hits::total           73                       # number of LoadLockedReq hits (Count)
system.cpu.dcache.LoadLockedReq.misses::cpu.data            1                       # number of LoadLockedReq misses (Count)
system.cpu.dcache.LoadLockedReq.misses::total            1                       # number of LoadLockedReq misses (Count)
system.cpu.dcache.LoadLockedReq.missLatency::cpu.data        38000                       # number of LoadLockedReq miss ticks (Tick)
system.cpu.dcache.LoadLockedReq.missLatency::total        38000                       # number of LoadLockedReq miss ticks (Tick)
system.cpu.dcache.LoadLockedReq.accesses::cpu.data           74                       # number of LoadLockedReq accesses(hits+misses) (Count)
system.cpu.dcache.LoadLockedReq.accesses::total           74                       # number of LoadLockedReq accesses(hits+misses) (Count)
system.cpu.dcache.LoadLockedReq.missRate::cpu.data     0.013514                       # miss rate for LoadLockedReq accesses (Ratio)
system.cpu.dcache.LoadLockedReq.missRate::total     0.013514                       # miss rate for LoadLockedReq accesses (Ratio)
system.cpu.dcache.LoadLockedReq.avgMissLatency::cpu.data        38000                       # average LoadLockedReq miss latency ((Tick/Count))
system.cpu.dcache.LoadLockedReq.avgMissLatency::total        38000                       # average LoadLockedReq miss latency ((Tick/Count))
system.cpu.dcache.LoadLockedReq.mshrHits::cpu.data            1                       # number of LoadLockedReq MSHR hits (Count)
system.cpu.dcache.LoadLockedReq.mshrHits::total            1                       # number of LoadLockedReq MSHR hits (Count)
system.cpu.dcache.ReadReq.hits::cpu.data       334278                       # number of ReadReq hits (Count)
system.cpu.dcache.ReadReq.hits::total          334278                       # number of ReadReq hits (Count)
system.cpu.dcache.ReadReq.misses::cpu.data         9050                       # number of ReadReq misses (Count)
system.cpu.dcache.ReadReq.misses::total          9050                       # number of ReadReq misses (Count)
system.cpu.dcache.ReadReq.missLatency::cpu.data    632559000                       # number of ReadReq miss ticks (Tick)
system.cpu.dcache.ReadReq.missLatency::total    632559000                       # number of ReadReq miss ticks (Tick)
system.cpu.dcache.ReadReq.accesses::cpu.data       343328                       # number of ReadReq accesses(hits+misses) (Count)
system.cpu.dcache.ReadReq.accesses::total       343328                       # number of ReadReq accesses(hits+misses) (Count)
system.cpu.dcache.ReadReq.missRate::cpu.data     0.026360                       # miss rate for ReadReq accesses (Ratio)
system.cpu.dcache.ReadReq.missRate::total     0.026360                       # miss rate for ReadReq accesses (Ratio)
system.cpu.dcache.ReadReq.avgMissLatency::cpu.data 69896.022099                       # average ReadReq miss latency ((Tick/Count))
system.cpu.dcache.ReadReq.avgMissLatency::total 69896.022099                       # average ReadReq miss latency ((Tick/Count))
system.cpu.dcache.ReadReq.mshrHits::cpu.data         7381                       # number of ReadReq MSHR hits (Count)
system.cpu.dcache.ReadReq.mshrHits::total         7381                       # number of ReadReq MSHR hits (Count)
system.cpu.dcache.ReadReq.mshrMisses::cpu.data         1669                       # number of ReadReq MSHR misses (Count)
system.cpu.dcache.ReadReq.mshrMisses::total         1669                       # number of ReadReq MSHR misses (Count)
system.cpu.dcache.ReadReq.mshrMissLatency::cpu.data    100387000                       # number of ReadReq MSHR miss ticks (Tick)
system.cpu.dcache.ReadReq.mshrMissLatency::total    100387000                       # number of ReadReq MSHR miss ticks (Tick)
system.cpu.dcache.ReadReq.mshrMissRate::cpu.data     0.004861                       # mshr miss rate for ReadReq accesses (Ratio)
system.cpu.dcache.ReadReq.mshrMissRate::total     0.004861                       # mshr miss rate for ReadReq accesses (Ratio)
system.cpu.dcache.ReadReq.avgMshrMissLatency::cpu.data 60147.992810                       # average ReadReq mshr miss latency ((Tick/Count))
system.cpu.dcache.ReadReq.avgMshrMissLatency::total 60147.992810                       # average ReadReq mshr miss latency ((Tick/Count))
system.cpu.dcache.SoftPFReq.hits::cpu.data           26                       # number of SoftPFReq hits (Count)
system.cpu.dcache.SoftPFReq.hits::total            26                       # number of SoftPFReq hits (Count)
system.cpu.dcache.SoftPFReq.misses::cpu.data            3                       # number of SoftPFReq misses (Count)
system.cpu.dcache.SoftPFReq.misses::total            3                       # number of SoftPFReq misses (Count)
system.cpu.dcache.SoftPFReq.accesses::cpu.data           29                       # number of SoftPFReq accesses(hits+misses) (Count)
system.cpu.dcache.SoftPFReq.accesses::total           29                       # number of SoftPFReq accesses(hits+misses) (Count)
system.cpu.dcache.SoftPFReq.missRate::cpu.data     0.103448                       # miss rate for SoftPFReq accesses (Ratio)
system.cpu.dcache.SoftPFReq.missRate::total     0.103448                       # miss rate for SoftPFReq accesses (Ratio)
system.cpu.dcache.SoftPFReq.mshrMisses::cpu.data            3                       # number of SoftPFReq MSHR misses (Count)
system.cpu.dcache.SoftPFReq.mshrMisses::total            3                       # number of SoftPFReq MSHR misses (Count)
system.cpu.dcache.SoftPFReq.mshrMissLatency::cpu.data       256000                       # number of SoftPFReq MSHR miss ticks (Tick)
system.cpu.dcache.SoftPFReq.mshrMissLatency::total       256000                       # number of SoftPFReq MSHR miss ticks (Tick)
system.cpu.dcache.SoftPFReq.mshrMissRate::cpu.data     0.103448                       # mshr miss rate for SoftPFReq accesses (Ratio)
system.cpu.dcache.SoftPFReq.mshrMissRate::total     0.103448                       # mshr miss rate for SoftPFReq accesses (Ratio)
system.cpu.dcache.SoftPFReq.avgMshrMissLatency::cpu.data 85333.333333                       # average SoftPFReq mshr miss latency ((Tick/Count))
system.cpu.dcache.SoftPFReq.avgMshrMissLatency::total 85333.333333                       # average SoftPFReq mshr miss latency ((Tick/Count))
system.cpu.dcache.StoreCondReq.hits::cpu.data           62                       # number of StoreCondReq hits (Count)
system.cpu.dcache.StoreCondReq.hits::total           62                       # number of StoreCondReq hits (Count)
system.cpu.dcache.StoreCondReq.accesses::cpu.data           62                       # number of StoreCondReq accesses(hits+misses) (Count)
system.cpu.dcache.StoreCondReq.accesses::total           62                       # number of StoreCondReq accesses(hits+misses) (Count)
system.cpu.dcache.WriteLineReq.misses::cpu.data        14334                       # number of WriteLineReq misses (Count)
system.cpu.dcache.WriteLineReq.misses::total        14334                       # number of WriteLineReq misses (Count)
system.cpu.dcache.WriteLineReq.missLatency::cpu.data    470939367                       # number of WriteLineReq miss ticks (Tick)
system.cpu.dcache.WriteLineReq.missLatency::total    470939367                       # number of WriteLineReq miss ticks (Tick)
system.cpu.dcache.WriteLineReq.accesses::cpu.data        14334                       # number of WriteLineReq accesses(hits+misses) (Count)
system.cpu.dcache.WriteLineReq.accesses::total        14334                       # number of WriteLineReq accesses(hits+misses) (Count)
system.cpu.dcache.WriteLineReq.missRate::cpu.data            1                       # miss rate for WriteLineReq accesses (Ratio)
system.cpu.dcache.WriteLineReq.missRate::total            1                       # miss rate for WriteLineReq accesses (Ratio)
system.cpu.dcache.WriteLineReq.avgMissLatency::cpu.data 32854.706781                       # average WriteLineReq miss latency ((Tick/Count))
system.cpu.dcache.WriteLineReq.avgMissLatency::total 32854.706781                       # average WriteLineReq miss latency ((Tick/Count))
system.cpu.dcache.WriteLineReq.mshrMisses::cpu.data        14334                       # number of WriteLineReq MSHR misses (Count)
system.cpu.dcache.WriteLineReq.mshrMisses::total        14334                       # number of WriteLineReq MSHR misses (Count)
system.cpu.dcache.WriteLineReq.mshrMissLatency::cpu.data    456605367                       # number of WriteLineReq MSHR miss ticks (Tick)
system.cpu.dcache.WriteLineReq.mshrMissLatency::total    456605367                       # number of WriteLineReq MSHR miss ticks (Tick)
system.cpu.dcache.WriteLineReq.mshrMissRate::cpu.data            1                       # mshr miss rate for WriteLineReq accesses (Ratio)
system.cpu.dcache.WriteLineReq.mshrMissRate::total            1                       # mshr miss rate for WriteLineReq accesses (Ratio)
system.cpu.dcache.WriteLineReq.avgMshrMissLatency::cpu.data 31854.706781                       # average WriteLineReq mshr miss latency ((Tick/Count))
system.cpu.dcache.WriteLineReq.avgMshrMissLatency::total 31854.706781                       # average WriteLineReq mshr miss latency ((Tick/Count))
system.cpu.dcache.WriteReq.hits::cpu.data        90415                       # number of WriteReq hits (Count)
system.cpu.dcache.WriteReq.hits::total          90415                       # number of WriteReq hits (Count)
system.cpu.dcache.WriteReq.misses::cpu.data        26409                       # number of WriteReq misses (Count)
system.cpu.dcache.WriteReq.misses::total        26409                       # number of WriteReq misses (Count)
system.cpu.dcache.WriteReq.missLatency::cpu.data    554679439                       # number of WriteReq miss ticks (Tick)
system.cpu.dcache.WriteReq.missLatency::total    554679439                       # number of WriteReq miss ticks (Tick)
system.cpu.dcache.WriteReq.accesses::cpu.data       116824                       # number of WriteReq accesses(hits+misses) (Count)
system.cpu.dcache.WriteReq.accesses::total       116824                       # number of WriteReq accesses(hits+misses) (Count)
system.cpu.dcache.WriteReq.missRate::cpu.data     0.226058                       # miss rate for WriteReq accesses (Ratio)
system.cpu.dcache.WriteReq.missRate::total     0.226058                       # miss rate for WriteReq accesses (Ratio)
system.cpu.dcache.WriteReq.avgMissLatency::cpu.data 21003.424552                       # average WriteReq miss latency ((Tick/Count))
system.cpu.dcache.WriteReq.avgMissLatency::total 21003.424552                       # average WriteReq miss latency ((Tick/Count))
system.cpu.dcache.WriteReq.mshrHits::cpu.data        22695                       # number of WriteReq MSHR hits (Count)
system.cpu.dcache.WriteReq.mshrHits::total        22695                       # number of WriteReq MSHR hits (Count)
system.cpu.dcache.WriteReq.mshrMisses::cpu.data         3714                       # number of WriteReq MSHR misses (Count)
system.cpu.dcache.WriteReq.mshrMisses::total         3714                       # number of WriteReq MSHR misses (Count)
system.cpu.dcache.WriteReq.mshrMissLatency::cpu.data    120458095                       # number of WriteReq MSHR miss ticks (Tick)
system.cpu.dcache.WriteReq.mshrMissLatency::total    120458095                       # number of WriteReq MSHR miss ticks (Tick)
system.cpu.dcache.WriteReq.mshrMissRate::cpu.data     0.031791                       # mshr miss rate for WriteReq accesses (Ratio)
system.cpu.dcache.WriteReq.mshrMissRate::total     0.031791                       # mshr miss rate for WriteReq accesses (Ratio)
system.cpu.dcache.WriteReq.avgMshrMissLatency::cpu.data 32433.520463                       # average WriteReq mshr miss latency ((Tick/Count))
system.cpu.dcache.WriteReq.avgMshrMissLatency::total 32433.520463                       # average WriteReq mshr miss latency ((Tick/Count))
system.cpu.dcache.power_state.pwrStateResidencyTicks::UNDEFINED    434498000                       # Cumulative time (in ticks) in various power states (Tick)
system.cpu.dcache.tags.tagsInUse           924.187826                       # Average ticks per tags in use ((Tick/Count))
system.cpu.dcache.tags.totalRefs               444574                       # Total number of references to valid blocks. (Count)
system.cpu.dcache.tags.sampledRefs              19720                       # Sample count of references to valid blocks. (Count)
system.cpu.dcache.tags.avgRefs              22.544320                       # Average number of references to valid blocks. ((Count/Count))
system.cpu.dcache.tags.warmupTick              176500                       # The tick when the warmup percentage was hit. (Tick)
system.cpu.dcache.tags.occupancies::cpu.data   924.187826                       # Average occupied blocks per tick, per requestor ((Count/Tick))
system.cpu.dcache.tags.avgOccs::cpu.data     0.902527                       # Average percentage of cache occupancy ((Ratio/Tick))
system.cpu.dcache.tags.avgOccs::total        0.902527                       # Average percentage of cache occupancy ((Ratio/Tick))
system.cpu.dcache.tags.occupanciesTaskId::1024         1024                       # Occupied blocks per task id (Count)
system.cpu.dcache.tags.ageTaskId_1024::0          113                       # Occupied blocks per task id, per block age (Count)
system.cpu.dcache.tags.ageTaskId_1024::1          732                       # Occupied blocks per task id, per block age (Count)
system.cpu.dcache.tags.ageTaskId_1024::2          179                       # Occupied blocks per task id, per block age (Count)
system.cpu.dcache.tags.ratioOccsTaskId::1024            1                       # Ratio of occupied blocks and all blocks, per task id (Ratio)
system.cpu.dcache.tags.tagAccesses             969022                       # Number of tag accesses (Count)
system.cpu.dcache.tags.dataAccesses            969022                       # Number of data accesses (Count)
system.cpu.dcache.tags.power_state.pwrStateResidencyTicks::UNDEFINED    434498000                       # Cumulative time (in ticks) in various power states (Tick)
system.cpu.decode.idleCycles                    65428                       # Number of cycles decode is idle (Cycle)
system.cpu.decode.blockedCycles                548800                       # Number of cycles decode is blocked (Cycle)
system.cpu.decode.runCycles                    152152                       # Number of cycles decode is running (Cycle)
system.cpu.decode.unblockCycles                 31038                       # Number of cycles decode is unblocking (Cycle)
system.cpu.decode.squashCycles                   3331                       # Number of cycles decode is squashing (Cycle)
system.cpu.decode.branchResolved               117239                       # Number of times decode resolved a branch (Count)
system.cpu.decode.branchMispred                   457                       # Number of times decode detected a branch misprediction (Count)
system.cpu.decode.decodedInsts                1231133                       # Number of instructions handled by decode (Count)
system.cpu.decode.squashedInsts                  1620                       # Number of squashed instructions handled by decode (Count)
system.cpu.fetch.icacheStallCycles              77586                       # Number of cycles fetch is stalled on an Icache miss (Cycle)
system.cpu.fetch.insts                        1190280                       # Number of instructions fetch has processed (Count)
system.cpu.fetch.branches                      162667                       # Number of branches that fetch encountered (Count)
system.cpu.fetch.predictedBranches             126970                       # Number of branches that fetch has predicted taken (Count)
system.cpu.fetch.cycles                        719297                       # Number of cycles fetch has run and was not squashing or blocked (Cycle)
system.cpu.fetch.squashCycles                    7534                       # Number of cycles fetch has spent squashing (Cycle)
system.cpu.fetch.miscStallCycles                   37                       # Number of cycles fetch has spent waiting on interrupts, or bad addresses, or out of MSHRs (Cycle)
system.cpu.fetch.icacheWaitRetryStallCycles           62                       # Number of stall cycles due to full MSHR (Cycle)
system.cpu.fetch.cacheLines                     54497                       # Number of cache lines fetched (Count)
system.cpu.fetch.icacheSquashes                  1467                       # Number of outstanding Icache misses that were squashed (Count)
system.cpu.fetch.nisnDist::samples             800749                       # Number of instructions fetched each cycle (Total) (Count)
system.cpu.fetch.nisnDist::mean              1.580086                       # Number of instructions fetched each cycle (Total) (Count)
system.cpu.fetch.nisnDist::stdev             2.800800                       # Number of instructions fetched each cycle (Total) (Count)
system.cpu.fetch.nisnDist::underflows               0      0.00%      0.00% # Number of instructions fetched each cycle (Total) (Count)
system.cpu.fetch.nisnDist::0                   549696     68.65%     68.65% # Number of instructions fetched each cycle (Total) (Count)
system.cpu.fetch.nisnDist::1                    10525      1.31%     69.96% # Number of instructions fetched each cycle (Total) (Count)
system.cpu.fetch.nisnDist::2                    76110      9.50%     79.47% # Number of instructions fetched each cycle (Total) (Count)
system.cpu.fetch.nisnDist::3                    10726      1.34%     80.81% # Number of instructions fetched each cycle (Total) (Count)
system.cpu.fetch.nisnDist::4                    30409      3.80%     84.60% # Number of instructions fetched each cycle (Total) (Count)
system.cpu.fetch.nisnDist::5                     7746      0.97%     85.57% # Number of instructions fetched each cycle (Total) (Count)
system.cpu.fetch.nisnDist::6                     4797      0.60%     86.17% # Number of instructions fetched each cycle (Total) (Count)
system.cpu.fetch.nisnDist::7                     4739      0.59%     86.76% # Number of instructions fetched each cycle (Total) (Count)
system.cpu.fetch.nisnDist::8                   106001     13.24%    100.00% # Number of instructions fetched each cycle (Total) (Count)
system.cpu.fetch.nisnDist::overflows                0      0.00%    100.00% # Number of instructions fetched each cycle (Total) (Count)
system.cpu.fetch.nisnDist::min_value                0                       # Number of instructions fetched each cycle (Total) (Count)
system.cpu.fetch.nisnDist::max_value                8                       # Number of instructions fetched each cycle (Total) (Count)
system.cpu.fetch.nisnDist::total               800749                       # Number of instructions fetched each cycle (Total) (Count)
system.cpu.fetch.branchRate                  0.187189                       # Number of branch fetches per cycle (Ratio)
system.cpu.fetch.rate                        1.369715                       # Number of inst fetches per cycle ((Count/Cycle))
system.cpu.icache.demandHits::cpu.inst          53080                       # number of demand (read+write) hits (Count)
system.cpu.icache.demandHits::total             53080                       # number of demand (read+write) hits (Count)
system.cpu.icache.overallHits::cpu.inst         53080                       # number of overall hits (Count)
system.cpu.icache.overallHits::total            53080                       # number of overall hits (Count)
system.cpu.icache.demandMisses::cpu.inst         1415                       # number of demand (read+write) misses (Count)
system.cpu.icache.demandMisses::total            1415                       # number of demand (read+write) misses (Count)
system.cpu.icache.overallMisses::cpu.inst         1415                       # number of overall misses (Count)
system.cpu.icache.overallMisses::total           1415                       # number of overall misses (Count)
system.cpu.icache.demandMissLatency::cpu.inst     86202998                       # number of demand (read+write) miss ticks (Tick)
system.cpu.icache.demandMissLatency::total     86202998                       # number of demand (read+write) miss ticks (Tick)
system.cpu.icache.overallMissLatency::cpu.inst     86202998                       # number of overall miss ticks (Tick)
system.cpu.icache.overallMissLatency::total     86202998                       # number of overall miss ticks (Tick)
system.cpu.icache.demandAccesses::cpu.inst        54495                       # number of demand (read+write) accesses (Count)
system.cpu.icache.demandAccesses::total         54495                       # number of demand (read+write) accesses (Count)
system.cpu.icache.overallAccesses::cpu.inst        54495                       # number of overall (read+write) accesses (Count)
system.cpu.icache.overallAccesses::total        54495                       # number of overall (read+write) accesses (Count)
system.cpu.icache.demandMissRate::cpu.inst     0.025966                       # miss rate for demand accesses (Ratio)
system.cpu.icache.demandMissRate::total      0.025966                       # miss rate for demand accesses (Ratio)
system.cpu.icache.overallMissRate::cpu.inst     0.025966                       # miss rate for overall accesses (Ratio)
system.cpu.icache.overallMissRate::total     0.025966                       # miss rate for overall accesses (Ratio)
system.cpu.icache.demandAvgMissLatency::cpu.inst 60920.846643                       # average overall miss latency in ticks ((Tick/Count))
system.cpu.icache.demandAvgMissLatency::total 60920.846643                       # average overall miss latency in ticks ((Tick/Count))
system.cpu.icache.overallAvgMissLatency::cpu.inst 60920.846643                       # average overall miss latency ((Tick/Count))
system.cpu.icache.overallAvgMissLatency::total 60920.846643                       # average overall miss latency ((Tick/Count))
system.cpu.icache.blockedCycles::no_mshrs         1032                       # number of cycles access was blocked (Cycle)
system.cpu.icache.blockedCycles::no_targets            0                       # number of cycles access was blocked (Cycle)
system.cpu.icache.blockedCauses::no_mshrs           14                       # number of times access was blocked (Count)
system.cpu.icache.blockedCauses::no_targets            0                       # number of times access was blocked (Count)
system.cpu.icache.avgBlocked::no_mshrs      73.714286                       # average number of cycles each access was blocked ((Cycle/Count))
system.cpu.icache.avgBlocked::no_targets          nan                       # average number of cycles each access was blocked ((Cycle/Count))
system.cpu.icache.writebacks::writebacks          894                       # number of writebacks (Count)
system.cpu.icache.writebacks::total               894                       # number of writebacks (Count)
system.cpu.icache.demandMshrHits::cpu.inst          265                       # number of demand (read+write) MSHR hits (Count)
system.cpu.icache.demandMshrHits::total           265                       # number of demand (read+write) MSHR hits (Count)
system.cpu.icache.overallMshrHits::cpu.inst          265                       # number of overall MSHR hits (Count)
system.cpu.icache.overallMshrHits::total          265                       # number of overall MSHR hits (Count)
system.cpu.icache.demandMshrMisses::cpu.inst         1150                       # number of demand (read+write) MSHR misses (Count)
system.cpu.icache.demandMshrMisses::total         1150                       # number of demand (read+write) MSHR misses (Count)
system.cpu.icache.overallMshrMisses::cpu.inst         1150                       # number of overall MSHR misses (Count)
system.cpu.icache.overallMshrMisses::total         1150                       # number of overall MSHR misses (Count)
system.cpu.icache.demandMshrMissLatency::cpu.inst     70931998                       # number of demand (read+write) MSHR miss ticks (Tick)
system.cpu.icache.demandMshrMissLatency::total     70931998                       # number of demand (read+write) MSHR miss ticks (Tick)
system.cpu.icache.overallMshrMissLatency::cpu.inst     70931998                       # number of overall MSHR miss ticks (Tick)
system.cpu.icache.overallMshrMissLatency::total     70931998                       # number of overall MSHR miss ticks (Tick)
system.cpu.icache.demandMshrMissRate::cpu.inst     0.021103                       # mshr miss ratio for demand accesses (Ratio)
system.cpu.icache.demandMshrMissRate::total     0.021103                       # mshr miss ratio for demand accesses (Ratio)
system.cpu.icache.overallMshrMissRate::cpu.inst     0.021103                       # mshr miss ratio for overall accesses (Ratio)
system.cpu.icache.overallMshrMissRate::total     0.021103                       # mshr miss ratio for overall accesses (Ratio)
system.cpu.icache.demandAvgMshrMissLatency::cpu.inst 61679.998261                       # average overall mshr miss latency ((Tick/Count))
system.cpu.icache.demandAvgMshrMissLatency::total 61679.998261                       # average overall mshr miss latency ((Tick/Count))
system.cpu.icache.overallAvgMshrMissLatency::cpu.inst 61679.998261                       # average overall mshr miss latency ((Tick/Count))
system.cpu.icache.overallAvgMshrMissLatency::total 61679.998261                       # average overall mshr miss latency ((Tick/Count))
system.cpu.icache.replacements                    894                       # number of replacements (Count)
system.cpu.icache.ReadReq.hits::cpu.inst        53080                       # number of ReadReq hits (Count)
system.cpu.icache.ReadReq.hits::total           53080                       # number of ReadReq hits (Count)
system.cpu.icache.ReadReq.misses::cpu.inst         1415                       # number of ReadReq misses (Count)
system.cpu.icache.ReadReq.misses::total          1415                       # number of ReadReq misses (Count)
system.cpu.icache.ReadReq.missLatency::cpu.inst     86202998                       # number of ReadReq miss ticks (Tick)
system.cpu.icache.ReadReq.missLatency::total     86202998                       # number of ReadReq miss ticks (Tick)
system.cpu.icache.ReadReq.accesses::cpu.inst        54495                       # number of ReadReq accesses(hits+misses) (Count)
system.cpu.icache.ReadReq.accesses::total        54495                       # number of ReadReq accesses(hits+misses) (Count)
system.cpu.icache.ReadReq.missRate::cpu.inst     0.025966                       # miss rate for ReadReq accesses (Ratio)
system.cpu.icache.ReadReq.missRate::total     0.025966                       # miss rate for ReadReq accesses (Ratio)
system.cpu.icache.ReadReq.avgMissLatency::cpu.inst 60920.846643                       # average ReadReq miss latency ((Tick/Count))
system.cpu.icache.ReadReq.avgMissLatency::total 60920.846643                       # average ReadReq miss latency ((Tick/Count))
system.cpu.icache.ReadReq.mshrHits::cpu.inst          265                       # number of ReadReq MSHR hits (Count)
system.cpu.icache.ReadReq.mshrHits::total          265                       # number of ReadReq MSHR hits (Count)
system.cpu.icache.ReadReq.mshrMisses::cpu.inst         1150                       # number of ReadReq MSHR misses (Count)
system.cpu.icache.ReadReq.mshrMisses::total         1150                       # number of ReadReq MSHR misses (Count)
system.cpu.icache.ReadReq.mshrMissLatency::cpu.inst     70931998                       # number of ReadReq MSHR miss ticks (Tick)
system.cpu.icache.ReadReq.mshrMissLatency::total     70931998                       # number of ReadReq MSHR miss ticks (Tick)
system.cpu.icache.ReadReq.mshrMissRate::cpu.inst     0.021103                       # mshr miss rate for ReadReq accesses (Ratio)
system.cpu.icache.ReadReq.mshrMissRate::total     0.021103                       # mshr miss rate for ReadReq accesses (Ratio)
system.cpu.icache.ReadReq.avgMshrMissLatency::cpu.inst 61679.998261                       # average ReadReq mshr miss latency ((Tick/Count))
system.cpu.icache.ReadReq.avgMshrMissLatency::total 61679.998261                       # average ReadReq mshr miss latency ((Tick/Count))
system.cpu.icache.power_state.pwrStateResidencyTicks::UNDEFINED    434498000                       # Cumulative time (in ticks) in various power states (Tick)
system.cpu.icache.tags.tagsInUse           249.213831                       # Average ticks per tags in use ((Tick/Count))
system.cpu.icache.tags.totalRefs                54230                       # Total number of references to valid blocks. (Count)
system.cpu.icache.tags.sampledRefs               1150                       # Sample count of references to valid blocks. (Count)
system.cpu.icache.tags.avgRefs              47.156522                       # Average number of references to valid blocks. ((Count/Count))
system.cpu.icache.tags.warmupTick               87500                       # The tick when the warmup percentage was hit. (Tick)
system.cpu.icache.tags.occupancies::cpu.inst   249.213831                       # Average occupied blocks per tick, per requestor ((Count/Tick))
system.cpu.icache.tags.avgOccs::cpu.inst     0.973492                       # Average percentage of cache occupancy ((Ratio/Tick))
system.cpu.icache.tags.avgOccs::total        0.973492                       # Average percentage of cache occupancy ((Ratio/Tick))
system.cpu.icache.tags.occupanciesTaskId::1024          256                       # Occupied blocks per task id (Count)
system.cpu.icache.tags.ageTaskId_1024::1           40                       # Occupied blocks per task id, per block age (Count)
system.cpu.icache.tags.ageTaskId_1024::2          216                       # Occupied blocks per task id, per block age (Count)
system.cpu.icache.tags.ratioOccsTaskId::1024            1                       # Ratio of occupied blocks and all blocks, per task id (Ratio)
system.cpu.icache.tags.tagAccesses             110140                       # Number of tag accesses (Count)
system.cpu.icache.tags.dataAccesses            110140                       # Number of data accesses (Count)
system.cpu.icache.tags.power_state.pwrStateResidencyTicks::UNDEFINED    434498000                       # Cumulative time (in ticks) in various power states (Tick)
system.cpu.iew.idleCycles                           0                       # Number of cycles IEW is idle (Cycle)
system.cpu.iew.squashCycles                      3331                       # Number of cycles IEW is squashing (Cycle)
system.cpu.iew.blockCycles                      21541                       # Number of cycles IEW is blocking (Cycle)
system.cpu.iew.unblockCycles                    18501                       # Number of cycles IEW is unblocking (Cycle)
system.cpu.iew.dispatchedInsts                1197149                       # Number of instructions dispatched to IQ (Count)
system.cpu.iew.dispSquashedInsts                  309                       # Number of squashed instructions skipped by dispatch (Count)
system.cpu.iew.dispLoadInsts                   357308                       # Number of dispatched load instructions (Count)
system.cpu.iew.dispStoreInsts                  151670                       # Number of dispatched store instructions (Count)
system.cpu.iew.dispNonSpecInsts                   135                       # Number of dispatched non-speculative instructions (Count)
system.cpu.iew.iqFullEvents                       107                       # Number of times the IQ has become full, causing a stall (Count)
system.cpu.iew.lsqFullEvents                    18377                       # Number of times the LSQ has become full, causing a stall (Count)
system.cpu.iew.memOrderViolationEvents             61                       # Number of memory order violations (Count)
system.cpu.iew.predictedTakenIncorrect           1275                       # Number of branches that were predicted taken incorrectly (Count)
system.cpu.iew.predictedNotTakenIncorrect         2171                       # Number of branches that were predicted not taken incorrectly (Count)
system.cpu.iew.branchMispredicts                 3446                       # Number of branch mispredicts detected at execute (Count)
system.cpu.iew.instsToCommit                  1144724                       # Cumulative count of insts sent to commit (Count)
system.cpu.iew.writebackCount                 1136164                       # Cumulative count of insts written-back (Count)
system.cpu.iew.producerInst                    770026                       # Number of instructions producing a value (Count)
system.cpu.iew.consumerInst                   1269103                       # Number of instructions consuming a value (Count)
system.cpu.iew.wbRate                        1.307441                       # Insts written-back per cycle ((Count/Cycle))
system.cpu.iew.wbFanout                      0.606748                       # Average fanout of values written-back ((Count/Count))
system.cpu.lsq0.forwLoads                        1544                       # Number of loads that had data forwarded from stores (Count)
system.cpu.lsq0.squashedLoads                   28637                       # Number of loads squashed (Count)
system.cpu.lsq0.ignoredResponses                   10                       # Number of memory responses ignored because the instruction is squashed (Count)
system.cpu.lsq0.memOrderViolation                  61                       # Number of memory ordering violations (Count)
system.cpu.lsq0.squashedStores                  20444                       # Number of stores squashed (Count)
system.cpu.lsq0.rescheduledLoads                 6333                       # Number of loads that were rescheduled (Count)
system.cpu.lsq0.blockedByCache                  12288                       # Number of times an access to memory failed due to the cache being blocked (Count)
[...]
system.mem_ctrls.dram.perBankWrBursts::8            0                       # Per bank write bursts (Count)
system.mem_ctrls.dram.perBankWrBursts::9            0                       # Per bank write bursts (Count)
system.mem_ctrls.dram.perBankWrBursts::10            0                       # Per bank write bursts (Count)
system.mem_ctrls.dram.perBankWrBursts::11            0                       # Per bank write bursts (Count)
system.mem_ctrls.dram.perBankWrBursts::12            0                       # Per bank write bursts (Count)
system.mem_ctrls.dram.perBankWrBursts::13            0                       # Per bank write bursts (Count)
system.mem_ctrls.dram.perBankWrBursts::14            0                       # Per bank write bursts (Count)
system.mem_ctrls.dram.perBankWrBursts::15            0                       # Per bank write bursts (Count)
system.mem_ctrls.dram.totQLat                24129500                       # Total ticks spent queuing (Tick)
system.mem_ctrls.dram.totBusLat              15910000                       # Total ticks spent in databus transfers (Tick)
system.mem_ctrls.dram.totMemAccLat           83792000                       # Total ticks spent from burst creation until serviced by the DRAM (Tick)
system.mem_ctrls.dram.avgQLat                 7583.12                       # Average queueing delay per DRAM burst ((Tick/Count))
system.mem_ctrls.dram.avgBusLat               5000.00                       # Average bus latency per DRAM burst ((Tick/Count))
system.mem_ctrls.dram.avgMemAccLat           26333.12                       # Average memory access latency per DRAM burst ((Tick/Count))
system.mem_ctrls.dram.readRowHits                2709                       # Number of row buffer hits during reads (Count)
system.mem_ctrls.dram.writeRowHits                  0                       # Number of row buffer hits during writes (Count)
system.mem_ctrls.dram.readRowHitRate            85.14                       # Row buffer hit rate for reads (Ratio)
system.mem_ctrls.dram.writeRowHitRate             nan                       # Row buffer hit rate for writes (Ratio)
system.mem_ctrls.dram.bytesPerActivate::samples          469                       # Bytes accessed per row activation (Byte)
system.mem_ctrls.dram.bytesPerActivate::mean   428.349680                       # Bytes accessed per row activation (Byte)
system.mem_ctrls.dram.bytesPerActivate::gmean   258.816828                       # Bytes accessed per row activation (Byte)
system.mem_ctrls.dram.bytesPerActivate::stdev   381.160864                       # Bytes accessed per row activation (Byte)
system.mem_ctrls.dram.bytesPerActivate::0-127          116     24.73%     24.73% # Bytes accessed per row activation (Byte)
system.mem_ctrls.dram.bytesPerActivate::128-255          115     24.52%     49.25% # Bytes accessed per row activation (Byte)
system.mem_ctrls.dram.bytesPerActivate::256-383           39      8.32%     57.57% # Bytes accessed per row activation (Byte)
system.mem_ctrls.dram.bytesPerActivate::384-511           28      5.97%     63.54% # Bytes accessed per row activation (Byte)
system.mem_ctrls.dram.bytesPerActivate::512-639           25      5.33%     68.87% # Bytes accessed per row activation (Byte)
system.mem_ctrls.dram.bytesPerActivate::640-767           16      3.41%     72.28% # Bytes accessed per row activation (Byte)
system.mem_ctrls.dram.bytesPerActivate::768-895           13      2.77%     75.05% # Bytes accessed per row activation (Byte)
system.mem_ctrls.dram.bytesPerActivate::896-1023           16      3.41%     78.46% # Bytes accessed per row activation (Byte)
system.mem_ctrls.dram.bytesPerActivate::1024-1151          101     21.54%    100.00% # Bytes accessed per row activation (Byte)
system.mem_ctrls.dram.bytesPerActivate::total          469                       # Bytes accessed per row activation (Byte)
system.mem_ctrls.dram.bytesRead                203648                       # Total bytes read (Byte)
system.mem_ctrls.dram.bytesWritten                  0                       # Total bytes written (Byte)
system.mem_ctrls.dram.avgRdBW              468.697209                       # Average DRAM read bandwidth in MiBytes/s ((Byte/Second))
system.mem_ctrls.dram.avgWrBW                       0                       # Average DRAM write bandwidth in MiBytes/s ((Byte/Second))
system.mem_ctrls.dram.peakBW                 12800.00                       # Theoretical peak bandwidth in MiByte/s ((Byte/Second))
system.mem_ctrls.dram.busUtil                    3.66                       # Data bus utilization in percentage (Ratio)
system.mem_ctrls.dram.busUtilRead                3.66                       # Data bus utilization in percentage for reads (Ratio)
system.mem_ctrls.dram.busUtilWrite               0.00                       # Data bus utilization in percentage for writes (Ratio)
system.mem_ctrls.dram.pageHitRate               85.14                       # Row buffer hit rate, read and write combined (Ratio)
system.mem_ctrls.dram.power_state.pwrStateResidencyTicks::UNDEFINED    434498000                       # Cumulative time (in ticks) in various power states (Tick)
system.mem_ctrls.dram.rank0.actEnergy         1635060                       # Energy for activate commands per rank (pJ) (Joule)
system.mem_ctrls.dram.rank0.preEnergy          853875                       # Energy for precharge commands per rank (pJ) (Joule)
system.mem_ctrls.dram.rank0.readEnergy        9046380                       # Energy for read commands per rank (pJ) (Joule)
system.mem_ctrls.dram.rank0.writeEnergy             0                       # Energy for write commands per rank (pJ) (Joule)
system.mem_ctrls.dram.rank0.refreshEnergy 33805200.000000                       # Energy for refresh commands per rank (pJ) (Joule)
system.mem_ctrls.dram.rank0.actBackEnergy     94451280                       # Energy for active background per rank (pJ) (Joule)
system.mem_ctrls.dram.rank0.preBackEnergy     87309600                       # Energy for precharge background per rank (pJ) (Joule)
system.mem_ctrls.dram.rank0.actPowerDownEnergy            0                       # Energy for active power-down per rank (pJ) (Joule)
system.mem_ctrls.dram.rank0.prePowerDownEnergy            0                       # Energy for precharge power-down per rank (pJ) (Joule)
system.mem_ctrls.dram.rank0.selfRefreshEnergy            0                       # Energy for self refresh per rank (pJ) (Joule)
system.mem_ctrls.dram.rank0.totalEnergy     227101395                       # Total energy per rank (pJ) (Joule)
system.mem_ctrls.dram.rank0.averagePower   522.675352                       # Core power per rank (mW) (Watt)
system.mem_ctrls.dram.rank0.totalIdleTime            0                       # Total Idle time Per DRAM Rank (Tick)
system.mem_ctrls.dram.rank0.pwrStateTime::IDLE    226158500                       # Time in different power states (Tick)
system.mem_ctrls.dram.rank0.pwrStateTime::REF     14300000                       # Time in different power states (Tick)
system.mem_ctrls.dram.rank0.pwrStateTime::SREF            0                       # Time in different power states (Tick)
system.mem_ctrls.dram.rank0.pwrStateTime::PRE_PDN            0                       # Time in different power states (Tick)
system.mem_ctrls.dram.rank0.pwrStateTime::ACT    194039500                       # Time in different power states (Tick)
system.mem_ctrls.dram.rank0.pwrStateTime::ACT_PDN            0                       # Time in different power states (Tick)
system.mem_ctrls.dram.rank1.actEnergy         1742160                       # Energy for activate commands per rank (pJ) (Joule)
system.mem_ctrls.dram.rank1.preEnergy          925980                       # Energy for precharge commands per rank (pJ) (Joule)
system.mem_ctrls.dram.rank1.readEnergy       13673100                       # Energy for read commands per rank (pJ) (Joule)
system.mem_ctrls.dram.rank1.writeEnergy             0                       # Energy for write commands per rank (pJ) (Joule)
system.mem_ctrls.dram.rank1.refreshEnergy 33805200.000000                       # Energy for refresh commands per rank (pJ) (Joule)
system.mem_ctrls.dram.rank1.actBackEnergy    135786540                       # Energy for active background per rank (pJ) (Joule)
system.mem_ctrls.dram.rank1.preBackEnergy     52500960                       # Energy for precharge background per rank (pJ) (Joule)
system.mem_ctrls.dram.rank1.actPowerDownEnergy            0                       # Energy for active power-down per rank (pJ) (Joule)
system.mem_ctrls.dram.rank1.prePowerDownEnergy            0                       # Energy for precharge power-down per rank (pJ) (Joule)
system.mem_ctrls.dram.rank1.selfRefreshEnergy            0                       # Energy for self refresh per rank (pJ) (Joule)
system.mem_ctrls.dram.rank1.totalEnergy     238433940                       # Total energy per rank (pJ) (Joule)
system.mem_ctrls.dram.rank1.averagePower   548.757279                       # Core power per rank (mW) (Watt)
system.mem_ctrls.dram.rank1.totalIdleTime            0                       # Total Idle time Per DRAM Rank (Tick)
system.mem_ctrls.dram.rank1.pwrStateTime::IDLE    134775500                       # Time in different power states (Tick)
system.mem_ctrls.dram.rank1.pwrStateTime::REF     14300000                       # Time in different power states (Tick)
system.mem_ctrls.dram.rank1.pwrStateTime::SREF            0                       # Time in different power states (Tick)
system.mem_ctrls.dram.rank1.pwrStateTime::PRE_PDN            0                       # Time in different power states (Tick)
system.mem_ctrls.dram.rank1.pwrStateTime::ACT    285422500                       # Time in different power states (Tick)
system.mem_ctrls.dram.rank1.pwrStateTime::ACT_PDN            0                       # Time in different power states (Tick)
system.mem_ctrls.power_state.pwrStateResidencyTicks::UNDEFINED    434498000                       # Cumulative time (in ticks) in various power states (Tick)
system.membus.transDist::ReadResp                2067                       # Transaction distribution (Count)
system.membus.transDist::ReadExReq               1115                       # Transaction distribution (Count)
system.membus.transDist::ReadExResp              1115                       # Transaction distribution (Count)
system.membus.transDist::ReadSharedReq           2067                       # Transaction distribution (Count)
system.membus.transDist::InvalidateReq          14337                       # Transaction distribution (Count)
system.membus.pktCount_system.l2.mem_side_port::system.mem_ctrls.port        20701                       # Packet count per connected requestor and responder (Count)
system.membus.pktCount::total                   20701                       # Packet count per connected requestor and responder (Count)
system.membus.pktSize_system.l2.mem_side_port::system.mem_ctrls.port       203648                       # Cumulative packet size per connected requestor and responder (Byte)
system.membus.pktSize::total                   203648                       # Cumulative packet size per connected requestor and responder (Byte)
system.membus.snoops                                0                       # Total snoops (Count)
system.membus.snoopTraffic                          0                       # Total snoop traffic (Byte)
system.membus.snoopFanout::samples              17519                       # Request fanout histogram (Count)
system.membus.snoopFanout::mean                     0                       # Request fanout histogram (Count)
system.membus.snoopFanout::stdev                    0                       # Request fanout histogram (Count)
system.membus.snoopFanout::underflows               0      0.00%      0.00% # Request fanout histogram (Count)
system.membus.snoopFanout::0                    17519    100.00%    100.00% # Request fanout histogram (Count)
system.membus.snoopFanout::1                        0      0.00%    100.00% # Request fanout histogram (Count)
system.membus.snoopFanout::overflows                0      0.00%    100.00% # Request fanout histogram (Count)
system.membus.snoopFanout::min_value                0                       # Request fanout histogram (Count)
system.membus.snoopFanout::max_value                0                       # Request fanout histogram (Count)
system.membus.snoopFanout::total                17519                       # Request fanout histogram (Count)
system.membus.power_state.pwrStateResidencyTicks::UNDEFINED    434498000                       # Cumulative time (in ticks) in various power states (Tick)
system.membus.reqLayer0.occupancy            18915000                       # Layer occupancy (ticks) (Tick)
system.membus.reqLayer0.utilization               0.0                       # Layer utilization (Ratio)
system.membus.respLayer1.occupancy           16766750                       # Layer occupancy (ticks) (Tick)
system.membus.respLayer1.utilization              0.0                       # Layer utilization (Ratio)
system.membus.snoop_filter.totRequests          17519                       # Total number of requests made to the snoop filter. (Count)
system.membus.snoop_filter.hitSingleRequests            0                       # Number of requests hitting in the snoop filter with a single holder of the requested data. (Count)
system.membus.snoop_filter.hitMultiRequests            0                       # Number of requests hitting in the snoop filter with multiple (>1) holders of the requested data. (Count)
system.membus.snoop_filter.totSnoops                0                       # Total number of snoops made to the snoop filter. (Count)
system.membus.snoop_filter.hitSingleSnoops            0                       # Number of snoops hitting in the snoop filter with a single holder of the requested data. (Count)
system.membus.snoop_filter.hitMultiSnoops            0                       # Number of snoops hitting in the snoop filter with multiple (>1) holders of the requested data. (Count)
system.tol2bus.transDist::ReadResp               2822                       # Transaction distribution (Count)
system.tol2bus.transDist::WritebackDirty        17569                       # Transaction distribution (Count)
system.tol2bus.transDist::WritebackClean          894                       # Transaction distribution (Count)
system.tol2bus.transDist::CleanEvict             1127                       # Transaction distribution (Count)
system.tol2bus.transDist::ReadExReq              3710                       # Transaction distribution (Count)
system.tol2bus.transDist::ReadExResp             3710                       # Transaction distribution (Count)
system.tol2bus.transDist::ReadCleanReq           1150                       # Transaction distribution (Count)
system.tol2bus.transDist::ReadSharedReq          1672                       # Transaction distribution (Count)
system.tol2bus.transDist::InvalidateReq         14338                       # Transaction distribution (Count)
system.tol2bus.transDist::InvalidateResp        14338                       # Transaction distribution (Count)
system.tol2bus.pktCount_system.cpu.icache.mem_side_port::system.l2.cpu_side_port         3194                       # Packet count per connected requestor and responder (Count)
system.tol2bus.pktCount_system.cpu.dcache.mem_side_port::system.l2.cpu_side_port        58136                       # Packet count per connected requestor and responder (Count)
system.tol2bus.pktCount::total                  61330                       # Packet count per connected requestor and responder (Count)
system.tol2bus.pktSize_system.cpu.icache.mem_side_port::system.l2.cpu_side_port       130816                       # Cumulative packet size per connected requestor and responder (Byte)
system.tol2bus.pktSize_system.cpu.dcache.mem_side_port::system.l2.cpu_side_port      1468864                       # Cumulative packet size per connected requestor and responder (Byte)
system.tol2bus.pktSize::total                 1599680                       # Cumulative packet size per connected requestor and responder (Byte)
system.tol2bus.snoops                               0                       # Total snoops (Count)
system.tol2bus.snoopTraffic                         0                       # Total snoop traffic (Byte)
system.tol2bus.snoopFanout::samples             20870                       # Request fanout histogram (Count)
system.tol2bus.snoopFanout::mean             0.000048                       # Request fanout histogram (Count)
system.tol2bus.snoopFanout::stdev            0.006922                       # Request fanout histogram (Count)
system.tol2bus.snoopFanout::underflows              0      0.00%      0.00% # Request fanout histogram (Count)
system.tol2bus.snoopFanout::0                   20869    100.00%    100.00% # Request fanout histogram (Count)
system.tol2bus.snoopFanout::1                       1      0.00%    100.00% # Request fanout histogram (Count)
system.tol2bus.snoopFanout::2                       0      0.00%    100.00% # Request fanout histogram (Count)
system.tol2bus.snoopFanout::overflows               0      0.00%    100.00% # Request fanout histogram (Count)
system.tol2bus.snoopFanout::min_value               0                       # Request fanout histogram (Count)
system.tol2bus.snoopFanout::max_value               1                       # Request fanout histogram (Count)
system.tol2bus.snoopFanout::total               20870                       # Request fanout histogram (Count)
system.tol2bus.power_state.pwrStateResidencyTicks::UNDEFINED    434498000                       # Cumulative time (in ticks) in various power states (Tick)
system.tol2bus.reqLayer0.occupancy           38693000                       # Layer occupancy (ticks) (Tick)
system.tol2bus.reqLayer0.utilization              0.1                       # Layer utilization (Ratio)
system.tol2bus.respLayer0.occupancy           1725499                       # Layer occupancy (ticks) (Tick)
system.tol2bus.respLayer0.utilization             0.0                       # Layer utilization (Ratio)
system.tol2bus.respLayer1.occupancy          15242499                       # Layer occupancy (ticks) (Tick)
system.tol2bus.respLayer1.utilization             0.0                       # Layer utilization (Ratio)
system.tol2bus.snoop_filter.totRequests         40460                       # Total number of requests made to the snoop filter. (Count)
system.tol2bus.snoop_filter.hitSingleRequests        19590                       # Number of requests hitting in the snoop filter with a single holder of the requested data. (Count)
system.tol2bus.snoop_filter.hitMultiRequests            1                       # Number of requests hitting in the snoop filter with multiple (>1) holders of the requested data. (Count)
system.tol2bus.snoop_filter.totSnoops               0                       # Total number of snoops made to the snoop filter. (Count)
system.tol2bus.snoop_filter.hitSingleSnoops            0                       # Number of snoops hitting in the snoop filter with a single holder of the requested data. (Count)
system.tol2bus.snoop_filter.hitMultiSnoops            0                       # Number of snoops hitting in the snoop filter with multiple (>1) holders of the requested data. (Count)
system.voltage_domain.voltage                       1                       # Voltage in Volts (Volt)
system.workload.inst.arm                            0                       # number of arm instructions executed (Count)
system.workload.inst.quiesce                        0                       # number of quiesce instructions executed (Count)

---------- End Simulation Statistics   ----------
