
---------- Begin Simulation Statistics ----------
simSeconds                                   0.000416                       # Number of seconds simulated (Second)
simTicks                                    416373000                       # Number of ticks simulated (Tick)
finalTick                                   416373000                       # Number of ticks from beginning of simulation (restored from checkpoints and never reset) (Tick)
simFreq                                  1000000000000                       # The number of ticks per simulated second ((Tick/Second))
hostSeconds                                      4.79                       # Real time elapsed on the host (Second)
hostTickRate                                 86961792                       # The number of ticks simulated per host second (ticks/s) ((Tick/Second))
hostMemory                                    8725000                       # Number of bytes of host memory used (Byte)
simInsts                                      1000001                       # Number of instructions simulated (Count)
simOps                                        1111650                       # Number of ops (including micro ops) simulated (Count)
hostInstRate                                   208817                       # Simulator instruction rate (inst/s) ((Count/Second))
hostOpRate                                     232130                       # Simulator op (including micro ops) rate (op/s) ((Count/Second))
system.clk_domain.clock                          1000                       # Clock period in ticks (Tick)
system.cpu.numCycles                           832748                       # Number of cpu cycles simulated (Cycle)
system.cpu.numWorkItemsStarted                      0                       # Number of work items this cpu started (Count)
system.cpu.numWorkItemsCompleted                    0                       # Number of work items this cpu completed (Count)
system.cpu.instsAdded                         1185372                       # Number of instructions added to the IQ (excludes non-spec) (Count)
system.cpu.nonSpecInstsAdded                      508                       # Number of non-speculative instructions added to the IQ (Count)
system.cpu.instsIssued                        1176370                       # Number of instructions issued (Count)
system.cpu.squashedInstsIssued                    533                       # Number of squashed instructions issued (Count)
system.cpu.squashedInstsExamined                74209                       # Number of squashed instructions iterated over during squash; mainly for profiling (Count)
system.cpu.squashedOperandsExamined             43733                       # Number of squashed operands that are examined and possibly removed from graph (Count)
system.cpu.squashedNonSpecRemoved                  22                       # Number of squashed non-spec instructions that were removed (Count)
system.cpu.numIssuedDist::samples              746390                       # Number of insts issued each cycle (Count)
system.cpu.numIssuedDist::mean               1.576080                       # Number of insts issued each cycle (Count)
system.cpu.numIssuedDist::stdev              2.009462                       # Number of insts issued each cycle (Count)
system.cpu.numIssuedDist::underflows                0      0.00%      0.00% # Number of insts issued each cycle (Count)
system.cpu.numIssuedDist::0                    345249     46.26%     46.26% # Number of insts issued each cycle (Count)
system.cpu.numIssuedDist::1                    121013     16.21%     62.47% # Number of insts issued each cycle (Count)
system.cpu.numIssuedDist::2                     78563     10.53%     72.99% # Number of insts issued each cycle (Count)
system.cpu.numIssuedDist::3                     66967      8.97%     81.97% # Number of insts issued each cycle (Count)
system.cpu.numIssuedDist::4                     54876      7.35%     89.32% # Number of insts issued each cycle (Count)
system.cpu.numIssuedDist::5                     33201      4.45%     93.77% # Number of insts issued each cycle (Count)
system.cpu.numIssuedDist::6                     24888      3.33%     97.10% # Number of insts issued each cycle (Count)
system.cpu.numIssuedDist::7                     10571      1.42%     98.52% # Number of insts issued each cycle (Count)
system.cpu.numIssuedDist::8                     11062      1.48%    100.00% # Number of insts issued each cycle (Count)
system.cpu.numIssuedDist::overflows                 0      0.00%    100.00% # Number of insts issued each cycle (Count)
system.cpu.numIssuedDist::min_value                 0                       # Number of insts issued each cycle (Count)
system.cpu.numIssuedDist::max_value                 8                       # Number of insts issued each cycle (Count)
system.cpu.numIssuedDist::total                746390                       # Number of insts issued each cycle (Count)
system.cpu.statFuBusy::No_OpClass                   0      0.00%      0.00% # attempts to use FU when none available (Count)
system.cpu.statFuBusy::IntAlu                    5553     32.85%     32.85% # attempts to use FU when none available (Count)
system.cpu.statFuBusy::IntMult                    282      1.67%     34.51% # attempts to use FU when none available (Count)
system.cpu.statFuBusy::IntDiv                       0      0.00%     34.51% # attempts to use FU when none available (Count)
system.cpu.statFuBusy::FloatAdd                     0      0.00%     34.51% # attempts to use FU when none available (Count)
system.cpu.statFuBusy::FloatCmp                     0      0.00%     34.51% # attempts to use FU when none available (Count)
system.cpu.statFuBusy::FloatCvt                     0      0.00%     34.51% # attempts to use FU when none available (Count)
system.cpu.statFuBusy::FloatMult                   16      0.09%     34.61% # attempts to use FU when none available (Count)
system.cpu.statFuBusy::FloatMultAcc                 1      0.01%     34.61% # attempts to use FU when none available (Count)
system.cpu.statFuBusy::FloatDiv                    37      0.22%     34.83% # attempts to use FU when none available (Count)
system.cpu.statFuBusy::FloatMisc                    1      0.01%     34.84% # attempts to use FU when none available (Count)
system.cpu.statFuBusy::FloatSqrt                    0      0.00%     34.84% # attempts to use FU when none available (Count)
system.cpu.statFuBusy::SimdAdd                      0      0.00%     34.84% # attempts to use FU when none available (Count)
system.cpu.statFuBusy::SimdAddAcc                   0      0.00%     34.84% # attempts to use FU when none available (Count)
system.cpu.statFuBusy::SimdAlu                      1      0.01%     34.85% # attempts to use FU when none available (Count)
system.cpu.statFuBusy::SimdCmp                     27      0.16%     35.01% # attempts to use FU when none available (Count)
system.cpu.statFuBusy::SimdCvt                      0      0.00%     35.01% # attempts to use FU when none available (Count)
system.cpu.statFuBusy::SimdMisc                     0      0.00%     35.01% # attempts to use FU when none available (Count)
system.cpu.statFuBusy::SimdMult                     0      0.00%     35.01% # attempts to use FU when none available (Count)
system.cpu.statFuBusy::SimdMultAcc                  0      0.00%     35.01% # attempts to use FU when none available (Count)
system.cpu.statFuBusy::SimdShift                    0      0.00%     35.01% # attempts to use FU when none available (Count)
system.cpu.statFuBusy::SimdShiftAcc                 0      0.00%     35.01% # attempts to use FU when none available (Count)
system.cpu.statFuBusy::SimdDiv                      0      0.00%     35.01% # attempts to use FU when none available (Count)
system.cpu.statFuBusy::SimdSqrt                     0      0.00%     35.01% # attempts to use FU when none available (Count)
system.cpu.statFuBusy::SimdFloatAdd                 0      0.00%     35.01% # attempts to use FU when none available (Count)
system.cpu.statFuBusy::SimdFloatAlu                 0      0.00%     35.01% # attempts to use FU when none available (Count)
system.cpu.statFuBusy::SimdFloatCmp                 0      0.00%     35.01% # attempts to use FU when none available (Count)
system.cpu.statFuBusy::SimdFloatCvt                 0      0.00%     35.01% # attempts to use FU when none available (Count)
system.cpu.statFuBusy::SimdFloatDiv                 0      0.00%     35.01% # attempts to use FU when none available (Count)
system.cpu.statFuBusy::SimdFloatMisc                0      0.00%     35.01% # attempts to use FU when none available (Count)
system.cpu.statFuBusy::SimdFloatMult                0      0.00%     35.01% # attempts to use FU when none available (Count)
system.cpu.statFuBusy::SimdFloatMultAcc             0      0.00%     35.01% # attempts to use FU when none available (Count)
system.cpu.statFuBusy::SimdFloatSqrt                0      0.00%     35.01% # attempts to use FU when none available (Count)
system.cpu.statFuBusy::SimdReduceAdd                0      0.00%     35.01% # attempts to use FU when none available (Count)
system.cpu.statFuBusy::SimdReduceAlu                0      0.00%     35.01% # attempts to use FU when none available (Count)
system.cpu.statFuBusy::SimdReduceCmp                0      0.00%     35.01% # attempts to use FU when none available (Count)
system.cpu.statFuBusy::SimdFloatReduceAdd            0      0.00%     35.01% # attempts to use FU when none available (Count)
system.cpu.statFuBusy::SimdFloatReduceCmp            0      0.00%     35.01% # attempts to use FU when none available (Count)
system.cpu.statFuBusy::SimdAes                      0      0.00%     35.01% # attempts to use FU when none available (Count)
system.cpu.statFuBusy::SimdAesMix                   0      0.00%     35.01% # attempts to use FU when none available (Count)
system.cpu.statFuBusy::SimdSha1Hash                 0      0.00%     35.01% # attempts to use FU when none available (Count)
system.cpu.statFuBusy::SimdSha1Hash2                0      0.00%     35.01% # attempts to use FU when none available (Count)
system.cpu.statFuBusy::SimdSha256Hash               0      0.00%     35.01% # attempts to use FU when none available (Count)
system.cpu.statFuBusy::SimdSha256Hash2              0      0.00%     35.01% # attempts to use FU when none available (Count)
system.cpu.statFuBusy::SimdShaSigma2                0      0.00%     35.01% # attempts to use FU when none available (Count)
system.cpu.statFuBusy::SimdShaSigma3                0      0.00%     35.01% # attempts to use FU when none available (Count)
system.cpu.statFuBusy::SimdPredAlu                  0      0.00%     35.01% # attempts to use FU when none available (Count)
system.cpu.statFuBusy::MemRead                   3524     20.84%     55.85% # attempts to use FU when none available (Count)
system.cpu.statFuBusy::MemWrite                  7464     44.15%    100.00% # attempts to use FU when none available (Count)
system.cpu.statFuBusy::FloatMemRead                 0      0.00%    100.00% # attempts to use FU when none available (Count)
system.cpu.statFuBusy::FloatMemWrite                0      0.00%    100.00% # attempts to use FU when none available (Count)
system.cpu.statFuBusy::IprAccess                    0      0.00%    100.00% # attempts to use FU when none available (Count)
system.cpu.statFuBusy::InstPrefetch                 0      0.00%    100.00% # attempts to use FU when none available (Count)
system.cpu.statIssuedInstType_0::No_OpClass          212      0.02%      0.02% # Number of instructions issued per FU type, per thread (Count)
system.cpu.statIssuedInstType_0::IntAlu        833848     70.88%     70.90% # Number of instructions issued per FU type, per thread (Count)
system.cpu.statIssuedInstType_0::IntMult         3856      0.33%     71.23% # Number of instructions issued per FU type, per thread (Count)
system.cpu.statIssuedInstType_0::IntDiv           912      0.08%     71.31% # Number of instructions issued per FU type, per thread (Count)
system.cpu.statIssuedInstType_0::FloatAdd          438      0.04%     71.34% # Number of instructions issued per FU type, per thread (Count)
system.cpu.statIssuedInstType_0::FloatCmp            7      0.00%     71.34% # Number of instructions issued per FU type, per thread (Count)
system.cpu.statIssuedInstType_0::FloatCvt            0      0.00%     71.34% # Number of instructions issued per FU type, per thread (Count)
system.cpu.statIssuedInstType_0::FloatMult           16      0.00%     71.35% # Number of instructions issued per FU type, per thread (Count)
system.cpu.statIssuedInstType_0::FloatMultAcc           22      0.00%     71.35% # Number of instructions issued per FU type, per thread (Count)
system.cpu.statIssuedInstType_0::FloatDiv            9      0.00%     71.35% # Number of instructions issued per FU type, per thread (Count)
system.cpu.statIssuedInstType_0::FloatMisc         1961      0.17%     71.51% # Number of instructions issued per FU type, per thread (Count)
system.cpu.statIssuedInstType_0::FloatSqrt            1      0.00%     71.52% # Number of instructions issued per FU type, per thread (Count)
system.cpu.statIssuedInstType_0::SimdAdd          508      0.04%     71.56% # Number of instructions issued per FU type, per thread (Count)
system.cpu.statIssuedInstType_0::SimdAddAcc            0      0.00%     71.56% # Number of instructions issued per FU type, per thread (Count)
system.cpu.statIssuedInstType_0::SimdAlu          757      0.06%     71.62% # Number of instructions issued per FU type, per thread (Count)
system.cpu.statIssuedInstType_0::SimdCmp          682      0.06%     71.68% # Number of instructions issued per FU type, per thread (Count)
system.cpu.statIssuedInstType_0::SimdCvt            0      0.00%     71.68% # Number of instructions issued per FU type, per thread (Count)
system.cpu.statIssuedInstType_0::SimdMisc          564      0.05%     71.73% # Number of instructions issued per FU type, per thread (Count)
system.cpu.statIssuedInstType_0::SimdMult            0      0.00%     71.73% # Number of instructions issued per FU type, per thread (Count)
system.cpu.statIssuedInstType_0::SimdMultAcc            0      0.00%     71.73% # Number of instructions issued per FU type, per thread (Count)
system.cpu.statIssuedInstType_0::SimdShift            0      0.00%     71.73% # Number of instructions issued per FU type, per thread (Count)
system.cpu.statIssuedInstType_0::SimdShiftAcc            0      0.00%     71.73% # Number of instructions issued per FU type, per thread (Count)
system.cpu.statIssuedInstType_0::SimdDiv            0      0.00%     71.73% # Number of instructions issued per FU type, per thread (Count)
system.cpu.statIssuedInstType_0::SimdSqrt            0      0.00%     71.73% # Number of instructions issued per FU type, per thread (Count)
system.cpu.statIssuedInstType_0::SimdFloatAdd            0      0.00%     71.73% # Number of instructions issued per FU type, per thread (Count)
system.cpu.statIssuedInstType_0::SimdFloatAlu            0      0.00%     71.73% # Number of instructions issued per FU type, per thread (Count)
system.cpu.statIssuedInstType_0::SimdFloatCmp            0      0.00%     71.73% # Number of instructions issued per FU type, per thread (Count)
system.cpu.statIssuedInstType_0::SimdFloatCvt            0      0.00%     71.73% # Number of instructions issued per FU type, per thread (Count)
system.cpu.statIssuedInstType_0::SimdFloatDiv            0      0.00%     71.73% # Number of instructions issued per FU type, per thread (Count)
system.cpu.statIssuedInstType_0::SimdFloatMisc            0      0.00%     71.73% # Number of instructions issued per FU type, per thread (Count)
system.cpu.statIssuedInstType_0::SimdFloatMult            0      0.00%     71.73% # Number of instructions issued per FU type, per thread (Count)
system.cpu.statIssuedInstType_0::SimdFloatMultAcc            0      0.00%     71.73% # Number of instructions issued per FU type, per thread (Count)
system.cpu.statIssuedInstType_0::SimdFloatSqrt            0      0.00%     71.73% # Number of instructions issued per FU type, per thread (Count)
system.cpu.statIssuedInstType_0::SimdReduceAdd            0      0.00%     71.73% # Number of instructions issued per FU type, per thread (Count)
system.cpu.statIssuedInstType_0::SimdReduceAlu            0      0.00%     71.73% # Number of instructions issued per FU type, per thread (Count)
system.cpu.statIssuedInstType_0::SimdReduceCmp            0      0.00%     71.73% # Number of instructions issued per FU type, per thread (Count)
system.cpu.statIssuedInstType_0::SimdFloatReduceAdd            0      0.00%     71.73% # Number of instructions issued per FU type, per thread (Count)
system.cpu.statIssuedInstType_0::SimdFloatReduceCmp            0      0.00%     71.73% # Number of instructions issued per FU type, per thread (Count)
system.cpu.statIssuedInstType_0::SimdAes            0      0.00%     71.73% # Number of instructions issued per FU type, per thread (Count)
system.cpu.statIssuedInstType_0::SimdAesMix            0      0.00%     71.73% # Number of instructions issued per FU type, per thread (Count)
system.cpu.statIssuedInstType_0::SimdSha1Hash            0      0.00%     71.73% # Number of instructions issued per FU type, per thread (Count)
system.cpu.statIssuedInstType_0::SimdSha1Hash2            0      0.00%     71.73% # Number of instructions issued per FU type, per thread (Count)
system.cpu.statIssuedInstType_0::SimdSha256Hash            0      0.00%     71.73% # Number of instructions issued per FU type, per thread (Count)
system.cpu.statIssuedInstType_0::SimdSha256Hash2            0      0.00%     71.73% # Number of instructions issued per FU type, per thread (Count)
system.cpu.statIssuedInstType_0::SimdShaSigma2            0      0.00%     71.73% # Number of instructions issued per FU type, per thread (Count)
system.cpu.statIssuedInstType_0::SimdShaSigma3            0      0.00%     71.73% # Number of instructions issued per FU type, per thread (Count)
system.cpu.statIssuedInstType_0::SimdPredAlu            0      0.00%     71.73% # Number of instructions issued per FU type, per thread (Count)
system.cpu.statIssuedInstType_0::MemRead       197241     16.77%     88.50% # Number of instructions issued per FU type, per thread (Count)
system.cpu.statIssuedInstType_0::MemWrite       135336     11.50%    100.00% # Number of instructions issued per FU type, per thread (Count)
system.cpu.statIssuedInstType_0::FloatMemRead            0      0.00%    100.00% # Number of instructions issued per FU type, per thread (Count)
system.cpu.statIssuedInstType_0::FloatMemWrite            0      0.00%    100.00% # Number of instructions issued per FU type, per thread (Count)
system.cpu.statIssuedInstType_0::IprAccess            0      0.00%    100.00% # Number of instructions issued per FU type, per thread (Count)
system.cpu.statIssuedInstType_0::InstPrefetch            0      0.00%    100.00% # Number of instructions issued per FU type, per thread (Count)
system.cpu.statIssuedInstType_0::total        1176370                       # Number of instructions issued per FU type, per thread (Count)
system.cpu.issueRate                         1.412636                       # Inst issue rate ((Count/Cycle))
system.cpu.fuBusy                               16906                       # FU busy when requested (Count)
system.cpu.fuBusyRate                        0.014371                       # FU busy rate (busy events/executed inst) ((Count/Count))
system.cpu.intInstQueueReads                  3091519                       # Number of integer instruction queue reads (Count)
system.cpu.intInstQueueWrites                 1245765                       # Number of integer instruction queue writes (Count)
system.cpu.intInstQueueWakeupAccesses         1143507                       # Number of integer instruction queue wakeup accesses (Count)
system.cpu.fpInstQueueReads                         0                       # Number of floating instruction queue reads (Count)
system.cpu.fpInstQueueWrites                        0                       # Number of floating instruction queue writes (Count)
system.cpu.fpInstQueueWakeupAccesses                0                       # Number of floating instruction queue wakeup accesses (Count)
system.cpu.vecInstQueueReads                    25045                       # Number of vector instruction queue reads (Count)
system.cpu.vecInstQueueWrites                   14370                       # Number of vector instruction queue writes (Count)
system.cpu.vecInstQueueWakeupAccesses           11678                       # Number of vector instruction queue wakeup accesses (Count)
system.cpu.intAluAccesses                     1180217                       # Number of integer alu accesses (Count)
system.cpu.fpAluAccesses                            0                       # Number of floating point alu accesses (Count)
system.cpu.vecAluAccesses                       12847                       # Number of vector alu accesses (Count)
system.cpu.numInsts                           1169421                       # Number of executed instructions (Count)
system.cpu.numLoadInsts                        195414                       # Number of load instructions executed (Count)
system.cpu.numSquashedInsts                      6944                       # Number of squashed instructions skipped in execute (Count)
system.cpu.numSwp                                   0                       # Number of swp insts executed (Count)
system.cpu.numNop                                2025                       # Number of nop insts executed (Count)
system.cpu.numRefs                             330200                       # Number of memory reference insts executed (Count)
system.cpu.numBranches                         225024                       # Number of branches executed (Count)
system.cpu.numStoreInsts                       134786                       # Number of stores executed (Count)
system.cpu.numRate                           1.404292                       # Inst execution rate ((Count/Cycle))
system.cpu.timesIdled                            7578                       # Number of times that the entire CPU went into an idle state and unscheduled itself (Count)
system.cpu.idleCycles                           86358                       # Total number of cycles that the CPU has spent unscheduled due to idling (Cycle)
system.cpu.committedInsts                     1000001                       # Number of Instructions Simulated (Count)
system.cpu.committedOps                       1111650                       # Number of Ops (including micro ops) Simulated (Count)
system.cpu.cpi                               0.832747                       # CPI: Cycles Per Instruction ((Cycle/Count))
system.cpu.totalCpi                          0.832747                       # CPI: Total CPI of All Threads ((Cycle/Count))
system.cpu.ipc                               1.200845                       # IPC: Instructions Per Cycle ((Count/Cycle))
system.cpu.totalIpc                          1.200845                       # IPC: Total IPC of All Threads ((Count/Cycle))
system.cpu.intRegfileReads                    1218579                       # Number of integer regfile reads (Count)
system.cpu.intRegfileWrites                    715490                       # Number of integer regfile writes (Count)
system.cpu.vecRegfileReads                      17356                       # number of vector regfile reads (Count)
system.cpu.ccRegfileReads                      405627                       # number of cc regfile reads (Count)
system.cpu.ccRegfileWrites                     398827                       # number of cc regfile writes (Count)
system.cpu.miscRegfileReads                    163278                       # number of misc regfile reads (Count)
system.cpu.miscRegfileWrites                     2390                       # number of misc regfile writes (Count)
system.cpu.MemDepUnit__0.insertedLoads         189415                       # Number of loads inserted to the mem dependence unit. (Count)
system.cpu.MemDepUnit__0.insertedStores        137591                       # Number of stores inserted to the mem dependence unit. (Count)
system.cpu.MemDepUnit__0.conflictingLoads         9343                       # Number of conflicting loads. (Count)
system.cpu.MemDepUnit__0.conflictingStores         7689                       # Number of conflicting stores. (Count)
system.cpu.MemDepUnit__1.insertedLoads              0                       # Number of loads inserted to the mem dependence unit. (Count)
system.cpu.MemDepUnit__1.insertedStores             0                       # Number of stores inserted to the mem dependence unit. (Count)
system.cpu.MemDepUnit__1.conflictingLoads            0                       # Number of conflicting loads. (Count)
system.cpu.MemDepUnit__1.conflictingStores            0                       # Number of conflicting stores. (Count)
system.cpu.MemDepUnit__2.insertedLoads              0                       # Number of loads inserted to the mem dependence unit. (Count)
system.cpu.MemDepUnit__2.insertedStores             0                       # Number of stores inserted to the mem dependence unit. (Count)
system.cpu.MemDepUnit__2.conflictingLoads            0                       # Number of conflicting loads. (Count)
system.cpu.MemDepUnit__2.conflictingStores            0                       # Number of conflicting stores. (Count)
system.cpu.MemDepUnit__3.insertedLoads              0                       # Number of loads inserted to the mem dependence unit. (Count)
system.cpu.MemDepUnit__3.insertedStores             0                       # Number of stores inserted to the mem dependence unit. (Count)
system.cpu.MemDepUnit__3.conflictingLoads            0                       # Number of conflicting loads. (Count)
system.cpu.MemDepUnit__3.conflictingStores            0                       # Number of conflicting stores. (Count)
system.cpu.branchPred.lookups                  240789                       # Number of BP lookups (Count)
system.cpu.branchPred.condPredicted            187100                       # Number of conditional branches predicted (Count)
system.cpu.branchPred.condIncorrect              4516                       # Number of conditional branches incorrect (Count)
system.cpu.branchPred.BTBLookups               114233                       # Number of BTB lookups (Count)
system.cpu.branchPred.BTBHits                  112457                       # Number of BTB hits (Count)
system.cpu.branchPred.BTBHitRatio            0.984453                       # BTB Hit Ratio (Ratio)
system.cpu.branchPred.RASUsed                   12334                       # Number of times the RAS was used to get a target. (Count)
system.cpu.branchPred.RASIncorrect                  1                       # Number of incorrect RAS predictions. (Count)
system.cpu.branchPred.indirectLookups            3328                       # Number of indirect predictor lookups. (Count)
system.cpu.branchPred.indirectHits               2897                       # Number of indirect target hits. (Count)
system.cpu.branchPred.indirectMisses              431                       # Number of indirect misses. (Count)
system.cpu.branchPred.indirectMispredicted          103                       # Number of mispredicted indirect branches. (Count)
system.cpu.commit.commitSquashedInsts           74111                       # The number of squashed insts skipped by commit (Count)
system.cpu.commit.commitNonSpecStalls             486                       # The number of times commit has been forced to stall to communicate backwards (Count)
system.cpu.commit.branchMispredicts              4059                       # The number of times a branch was mispredicted (Count)
system.cpu.commit.numCommittedDist::samples       735129                       # Number of insts commited each cycle (Count)
system.cpu.commit.numCommittedDist::mean     1.514708                       # Number of insts commited each cycle (Count)
system.cpu.commit.numCommittedDist::stdev     2.386582                       # Number of insts commited each cycle (Count)
system.cpu.commit.numCommittedDist::underflows            0      0.00%      0.00% # Number of insts commited each cycle (Count)
system.cpu.commit.numCommittedDist::0          378592     51.50%     51.50% # Number of insts commited each cycle (Count)
system.cpu.commit.numCommittedDist::1          148932     20.26%     71.76% # Number of insts commited each cycle (Count)
system.cpu.commit.numCommittedDist::2           61338      8.34%     80.10% # Number of insts commited each cycle (Count)
system.cpu.commit.numCommittedDist::3           35479      4.83%     84.93% # Number of insts commited each cycle (Count)
system.cpu.commit.numCommittedDist::4           20780      2.83%     87.76% # Number of insts commited each cycle (Count)
system.cpu.commit.numCommittedDist::5           10687      1.45%     89.21% # Number of insts commited each cycle (Count)
system.cpu.commit.numCommittedDist::6            9447      1.29%     90.50% # Number of insts commited each cycle (Count)
system.cpu.commit.numCommittedDist::7           16768      2.28%     92.78% # Number of insts commited each cycle (Count)
system.cpu.commit.numCommittedDist::8           53106      7.22%    100.00% # Number of insts commited each cycle (Count)
system.cpu.commit.numCommittedDist::overflows            0      0.00%    100.00% # Number of insts commited each cycle (Count)
system.cpu.commit.numCommittedDist::min_value            0                       # Number of insts commited each cycle (Count)
system.cpu.commit.numCommittedDist::max_value            8                       # Number of insts commited each cycle (Count)
system.cpu.commit.numCommittedDist::total       735129                       # Number of insts commited each cycle (Count)
system.cpu.commit.instsCommitted              1001857                       # Number of instructions committed (Count)
system.cpu.commit.opsCommitted                1113506                       # Number of ops (including micro ops) committed (Count)
system.cpu.commit.memRefs                      307422                       # Number of memory references committed (Count)
system.cpu.commit.loads                        176932                       # Number of loads committed (Count)
system.cpu.commit.amos                              0                       # Number of atomic instructions committed (Count)
system.cpu.commit.membars                         475                       # Number of memory barriers committed (Count)
system.cpu.commit.branches                     216052                       # Number of branches committed (Count)
system.cpu.commit.vectorInstructions            10338                       # Number of committed Vector instructions. (Count)
system.cpu.commit.floating                          0                       # Number of committed floating point instructions. (Count)
system.cpu.commit.integer                      980754                       # Number of committed integer instructions. (Count)
system.cpu.commit.functionCalls                 11108                       # Number of function calls committed. (Count)
system.cpu.commit.committedInstType_0::No_OpClass          184      0.02%      0.02% # Class of committed instruction (Count)
system.cpu.commit.committedInstType_0::IntAlu       796985     71.57%     71.59% # Class of committed instruction (Count)
system.cpu.commit.committedInstType_0::IntMult         3693      0.33%     71.92% # Class of committed instruction (Count)
system.cpu.commit.committedInstType_0::IntDiv          912      0.08%     72.00% # Class of committed instruction (Count)
system.cpu.commit.committedInstType_0::FloatAdd          438      0.04%     72.04% # Class of committed instruction (Count)
system.cpu.commit.committedInstType_0::FloatCmp            6      0.00%     72.04% # Class of committed instruction (Count)
system.cpu.commit.committedInstType_0::FloatCvt            0      0.00%     72.04% # Class of committed instruction (Count)
system.cpu.commit.committedInstType_0::FloatMult           15      0.00%     72.05% # Class of committed instruction (Count)
system.cpu.commit.committedInstType_0::FloatMultAcc           21      0.00%     72.05% # Class of committed instruction (Count)
system.cpu.commit.committedInstType_0::FloatDiv            9      0.00%     72.05% # Class of committed instruction (Count)
system.cpu.commit.committedInstType_0::FloatMisc         1629      0.15%     72.19% # Class of committed instruction (Count)
system.cpu.commit.committedInstType_0::FloatSqrt            0      0.00%     72.19% # Class of committed instruction (Count)
system.cpu.commit.committedInstType_0::SimdAdd          429      0.04%     72.23% # Class of committed instruction (Count)
system.cpu.commit.committedInstType_0::SimdAddAcc            0      0.00%     72.23% # Class of committed instruction (Count)
system.cpu.commit.committedInstType_0::SimdAlu          645      0.06%     72.29% # Class of committed instruction (Count)
system.cpu.commit.committedInstType_0::SimdCmp          594      0.05%     72.34% # Class of committed instruction (Count)
system.cpu.commit.committedInstType_0::SimdCvt            0      0.00%     72.34% # Class of committed instruction (Count)
system.cpu.commit.committedInstType_0::SimdMisc          524      0.05%     72.39% # Class of committed instruction (Count)
system.cpu.commit.committedInstType_0::SimdMult            0      0.00%     72.39% # Class of committed instruction (Count)
system.cpu.commit.committedInstType_0::SimdMultAcc            0      0.00%     72.39% # Class of committed instruction (Count)
system.cpu.commit.committedInstType_0::SimdShift            0      0.00%     72.39% # Class of committed instruction (Count)
system.cpu.commit.committedInstType_0::SimdShiftAcc            0      0.00%     72.39% # Class of committed instruction (Count)
system.cpu.commit.committedInstType_0::SimdDiv            0      0.00%     72.39% # Class of committed instruction (Count)
system.cpu.commit.committedInstType_0::SimdSqrt            0      0.00%     72.39% # Class of committed instruction (Count)
system.cpu.commit.committedInstType_0::SimdFloatAdd            0      0.00%     72.39% # Class of committed instruction (Count)
system.cpu.commit.committedInstType_0::SimdFloatAlu            0      0.00%     72.39% # Class of committed instruction (Count)
system.cpu.commit.committedInstType_0::SimdFloatCmp            0      0.00%     72.39% # Class of committed instruction (Count)
system.cpu.commit.committedInstType_0::SimdFloatCvt            0      0.00%     72.39% # Class of committed instruction (Count)
system.cpu.commit.committedInstType_0::SimdFloatDiv            0      0.00%     72.39% # Class of committed instruction (Count)
system.cpu.commit.committedInstType_0::SimdFloatMisc            0      0.00%     72.39% # Class of committed instruction (Count)
system.cpu.commit.committedInstType_0::SimdFloatMult            0      0.00%     72.39% # Class of committed instruction (Count)
system.cpu.commit.committedInstType_0::SimdFloatMultAcc            0      0.00%     72.39% # Class of committed instruction (Count)
system.cpu.commit.committedInstType_0::SimdFloatSqrt            0      0.00%     72.39% # Class of committed instruction (Count)
system.cpu.commit.committedInstType_0::SimdReduceAdd            0      0.00%     72.39% # Class of committed instruction (Count)
system.cpu.commit.committedInstType_0::SimdReduceAlu            0      0.00%     72.39% # Class of committed instruction (Count)
system.cpu.commit.committedInstType_0::SimdReduceCmp            0      0.00%     72.39% # Class of committed instruction (Count)
system.cpu.commit.committedInstType_0::SimdFloatReduceAdd            0      0.00%     72.39% # Class of committed instruction (Count)
system.cpu.commit.committedInstType_0::SimdFloatReduceCmp            0      0.00%     72.39% # Class of committed instruction (Count)
system.cpu.commit.committedInstType_0::SimdAes            0      0.00%     72.39% # Class of committed instruction (Count)
system.cpu.commit.committedInstType_0::SimdAesMix            0      0.00%     72.39% # Class of committed instruction (Count)
system.cpu.commit.committedInstType_0::SimdSha1Hash            0      0.00%     72.39% # Class of committed instruction (Count)
system.cpu.commit.committedInstType_0::SimdSha1Hash2            0      0.00%     72.39% # Class of committed instruction (Count)
system.cpu.commit.committedInstType_0::SimdSha256Hash            0      0.00%     72.39% # Class of committed instruction (Count)
system.cpu.commit.committedInstType_0::SimdSha256Hash2            0      0.00%     72.39% # Class of committed instruction (Count)
system.cpu.commit.committedInstType_0::SimdShaSigma2            0      0.00%     72.39% # Class of committed instruction (Count)
system.cpu.commit.committedInstType_0::SimdShaSigma3            0      0.00%     72.39% # Class of committed instruction (Count)
system.cpu.commit.committedInstType_0::SimdPredAlu            0      0.00%     72.39% # Class of committed instruction (Count)
system.cpu.commit.committedInstType_0::MemRead       176932     15.89%     88.28% # Class of committed instruction (Count)
system.cpu.commit.committedInstType_0::MemWrite       130490     11.72%    100.00% # Class of committed instruction (Count)
system.cpu.commit.committedInstType_0::FloatMemRead            0      0.00%    100.00% # Class of committed instruction (Count)
system.cpu.commit.committedInstType_0::FloatMemWrite            0      0.00%    100.00% # Class of committed instruction (Count)
system.cpu.commit.committedInstType_0::IprAccess            0      0.00%    100.00% # Class of committed instruction (Count)
system.cpu.commit.committedInstType_0::InstPrefetch            0      0.00%    100.00% # Class of committed instruction (Count)
system.cpu.commit.committedInstType_0::total      1113506                       # Class of committed instruction (Count)
system.cpu.commit.commitEligibleSamples         53106                       # number cycles where commit BW limit reached (Cycle)
system.cpu.dcache.demandHits::cpu.data         298291                       # number of demand (read+write) hits (Count)
system.cpu.dcache.demandHits::total            298291                       # number of demand (read+write) hits (Count)
system.cpu.dcache.overallHits::cpu.data        299541                       # number of overall hits (Count)
system.cpu.dcache.overallHits::total           299541                       # number of overall hits (Count)
system.cpu.dcache.demandMisses::cpu.data         2414                       # number of demand (read+write) misses (Count)
system.cpu.dcache.demandMisses::total            2414                       # number of demand (read+write) misses (Count)
system.cpu.dcache.overallMisses::cpu.data         2417                       # number of overall misses (Count)
system.cpu.dcache.overallMisses::total           2417                       # number of overall misses (Count)
system.cpu.dcache.demandMissLatency::cpu.data    189420968                       # number of demand (read+write) miss ticks (Tick)
system.cpu.dcache.demandMissLatency::total    189420968                       # number of demand (read+write) miss ticks (Tick)
system.cpu.dcache.overallMissLatency::cpu.data    189420968                       # number of overall miss ticks (Tick)
system.cpu.dcache.overallMissLatency::total    189420968                       # number of overall miss ticks (Tick)
system.cpu.dcache.demandAccesses::cpu.data       300705                       # number of demand (read+write) accesses (Count)
system.cpu.dcache.demandAccesses::total        300705                       # number of demand (read+write) accesses (Count)
system.cpu.dcache.overallAccesses::cpu.data       301958                       # number of overall (read+write) accesses (Count)
system.cpu.dcache.overallAccesses::total       301958                       # number of overall (read+write) accesses (Count)
system.cpu.dcache.demandMissRate::cpu.data     0.008028                       # miss rate for demand accesses (Ratio)
system.cpu.dcache.demandMissRate::total      0.008028                       # miss rate for demand accesses (Ratio)
system.cpu.dcache.overallMissRate::cpu.data     0.008004                       # miss rate for overall accesses (Ratio)
system.cpu.dcache.overallMissRate::total     0.008004                       # miss rate for overall accesses (Ratio)
system.cpu.dcache.demandAvgMissLatency::cpu.data 78467.675228                       # average overall miss latency in ticks ((Tick/Count))
system.cpu.dcache.demandAvgMissLatency::total 78467.675228                       # average overall miss latency in ticks ((Tick/Count))
system.cpu.dcache.overallAvgMissLatency::cpu.data 78370.280513                       # average overall miss latency ((Tick/Count))
system.cpu.dcache.overallAvgMissLatency::total 78370.280513                       # average overall miss latency ((Tick/Count))
system.cpu.dcache.blockedCycles::no_mshrs         3809                       # number of cycles access was blocked (Cycle)
system.cpu.dcache.blockedCycles::no_targets            0                       # number of cycles access was blocked (Cycle)
system.cpu.dcache.blockedCauses::no_mshrs           52                       # number of times access was blocked (Count)
system.cpu.dcache.blockedCauses::no_targets            0                       # number of times access was blocked (Count)
system.cpu.dcache.avgBlocked::no_mshrs      73.250000                       # average number of cycles each access was blocked ((Cycle/Count))
system.cpu.dcache.avgBlocked::no_targets          nan                       # average number of cycles each access was blocked ((Cycle/Count))
system.cpu.dcache.writebacks::writebacks           43                       # number of writebacks (Count)
system.cpu.dcache.writebacks::total                43                       # number of writebacks (Count)
system.cpu.dcache.demandMshrHits::cpu.data         1769                       # number of demand (read+write) MSHR hits (Count)
system.cpu.dcache.demandMshrHits::total          1769                       # number of demand (read+write) MSHR hits (Count)
system.cpu.dcache.overallMshrHits::cpu.data         1769                       # number of overall MSHR hits (Count)
system.cpu.dcache.overallMshrHits::total         1769                       # number of overall MSHR hits (Count)
system.cpu.dcache.demandMshrMisses::cpu.data          645                       # number of demand (read+write) MSHR misses (Count)
system.cpu.dcache.demandMshrMisses::total          645                       # number of demand (read+write) MSHR misses (Count)
system.cpu.dcache.overallMshrMisses::cpu.data          648                       # number of overall MSHR misses (Count)
system.cpu.dcache.overallMshrMisses::total          648                       # number of overall MSHR misses (Count)
system.cpu.dcache.demandMshrMissLatency::cpu.data     54129994                       # number of demand (read+write) MSHR miss ticks (Tick)
system.cpu.dcache.demandMshrMissLatency::total     54129994                       # number of demand (read+write) MSHR miss ticks (Tick)
system.cpu.dcache.overallMshrMissLatency::cpu.data     54360494                       # number of overall MSHR miss ticks (Tick)
system.cpu.dcache.overallMshrMissLatency::total     54360494                       # number of overall MSHR miss ticks (Tick)
system.cpu.dcache.demandMshrMissRate::cpu.data     0.002145                       # mshr miss ratio for demand accesses (Ratio)
system.cpu.dcache.demandMshrMissRate::total     0.002145                       # mshr miss ratio for demand accesses (Ratio)
system.cpu.dcache.overallMshrMissRate::cpu.data     0.002146                       # mshr miss ratio for overall accesses (Ratio)
system.cpu.dcache.overallMshrMissRate::total     0.002146                       # mshr miss ratio for overall accesses (Ratio)
system.cpu.dcache.demandAvgMshrMissLatency::cpu.data 83922.471318                       # average overall mshr miss latency ((Tick/Count))
system.cpu.dcache.demandAvgMshrMissLatency::total 83922.471318                       # average overall mshr miss latency ((Tick/Count))
system.cpu.dcache.overallAvgMshrMissLatency::cpu.data 83889.651235                       # average overall mshr miss latency ((Tick/Count))
system.cpu.dcache.overallAvgMshrMissLatency::total 83889.651235                       # average overall mshr miss latency ((Tick/Count))
system.cpu.dcache.replacements                     61                       # number of replacements (Count)
system.cpu.dcache.LoadLockedReq.hits::cpu.data          483                       # number of LoadLockedReq hits (Count)
system.cpu.dcache.LoadLockedReq.hits::total          483                       # number of LoadLockedReq hits (Count)
system.cpu.dcache.LoadLockedReq.accesses::cpu.data          483                       # number of LoadLockedReq accesses(hits+misses) (Count)
system.cpu.dcache.LoadLockedReq.accesses::total          483                       # number of LoadLockedReq accesses(hits+misses) (Count)
system.cpu.dcache.ReadReq.hits::cpu.data       169960                       # number of ReadReq hits (Count)
system.cpu.dcache.ReadReq.hits::total          169960                       # number of ReadReq hits (Count)
system.cpu.dcache.ReadReq.misses::cpu.data          732                       # number of ReadReq misses (Count)
system.cpu.dcache.ReadReq.misses::total           732                       # number of ReadReq misses (Count)
system.cpu.dcache.ReadReq.missLatency::cpu.data     56841500                       # number of ReadReq miss ticks (Tick)
system.cpu.dcache.ReadReq.missLatency::total     56841500                       # number of ReadReq miss ticks (Tick)
system.cpu.dcache.ReadReq.accesses::cpu.data       170692                       # number of ReadReq accesses(hits+misses) (Count)
system.cpu.dcache.ReadReq.accesses::total       170692                       # number of ReadReq accesses(hits+misses) (Count)
system.cpu.dcache.ReadReq.missRate::cpu.data     0.004288                       # miss rate for ReadReq accesses (Ratio)
system.cpu.dcache.ReadReq.missRate::total     0.004288                       # miss rate for ReadReq accesses (Ratio)
system.cpu.dcache.ReadReq.avgMissLatency::cpu.data 77652.322404                       # average ReadReq miss latency ((Tick/Count))
system.cpu.dcache.ReadReq.avgMissLatency::total 77652.322404                       # average ReadReq miss latency ((Tick/Count))
system.cpu.dcache.ReadReq.mshrHits::cpu.data          488                       # number of ReadReq MSHR hits (Count)
system.cpu.dcache.ReadReq.mshrHits::total          488                       # number of ReadReq MSHR hits (Count)
system.cpu.dcache.ReadReq.mshrMisses::cpu.data          244                       # number of ReadReq MSHR misses (Count)
system.cpu.dcache.ReadReq.mshrMisses::total          244                       # number of ReadReq MSHR misses (Count)
system.cpu.dcache.ReadReq.mshrMissLatency::cpu.data     21231500                       # number of ReadReq MSHR miss ticks (Tick)
system.cpu.dcache.ReadReq.mshrMissLatency::total     21231500                       # number of ReadReq MSHR miss ticks (Tick)
system.cpu.dcache.ReadReq.mshrMissRate::cpu.data     0.001429                       # mshr miss rate for ReadReq accesses (Ratio)
system.cpu.dcache.ReadReq.mshrMissRate::total     0.001429                       # mshr miss rate for ReadReq accesses (Ratio)
system.cpu.dcache.ReadReq.avgMshrMissLatency::cpu.data 87014.344262                       # average ReadReq mshr miss latency ((Tick/Count))
system.cpu.dcache.ReadReq.avgMshrMissLatency::total 87014.344262                       # average ReadReq mshr miss latency ((Tick/Count))
system.cpu.dcache.SoftPFReq.hits::cpu.data         1250                       # number of SoftPFReq hits (Count)
system.cpu.dcache.SoftPFReq.hits::total          1250                       # number of SoftPFReq hits (Count)
system.cpu.dcache.SoftPFReq.misses::cpu.data            3                       # number of SoftPFReq misses (Count)
system.cpu.dcache.SoftPFReq.misses::total            3                       # number of SoftPFReq misses (Count)
system.cpu.dcache.SoftPFReq.accesses::cpu.data         1253                       # number of SoftPFReq accesses(hits+misses) (Count)
system.cpu.dcache.SoftPFReq.accesses::total         1253                       # number of SoftPFReq accesses(hits+misses) (Count)
system.cpu.dcache.SoftPFReq.missRate::cpu.data     0.002394                       # miss rate for SoftPFReq accesses (Ratio)
system.cpu.dcache.SoftPFReq.missRate::total     0.002394                       # miss rate for SoftPFReq accesses (Ratio)
system.cpu.dcache.SoftPFReq.mshrMisses::cpu.data            3                       # number of SoftPFReq MSHR misses (Count)
system.cpu.dcache.SoftPFReq.mshrMisses::total            3                       # number of SoftPFReq MSHR misses (Count)
system.cpu.dcache.SoftPFReq.mshrMissLatency::cpu.data       230500                       # number of SoftPFReq MSHR miss ticks (Tick)
system.cpu.dcache.SoftPFReq.mshrMissLatency::total       230500                       # number of SoftPFReq MSHR miss ticks (Tick)
system.cpu.dcache.SoftPFReq.mshrMissRate::cpu.data     0.002394                       # mshr miss rate for SoftPFReq accesses (Ratio)
system.cpu.dcache.SoftPFReq.mshrMissRate::total     0.002394                       # mshr miss rate for SoftPFReq accesses (Ratio)
system.cpu.dcache.SoftPFReq.avgMshrMissLatency::cpu.data 76833.333333                       # average SoftPFReq mshr miss latency ((Tick/Count))
system.cpu.dcache.SoftPFReq.avgMshrMissLatency::total 76833.333333                       # average SoftPFReq mshr miss latency ((Tick/Count))
system.cpu.dcache.StoreCondReq.hits::cpu.data          475                       # number of StoreCondReq hits (Count)
system.cpu.dcache.StoreCondReq.hits::total          475                       # number of StoreCondReq hits (Count)
system.cpu.dcache.StoreCondReq.accesses::cpu.data          475                       # number of StoreCondReq accesses(hits+misses) (Count)
system.cpu.dcache.StoreCondReq.accesses::total          475                       # number of StoreCondReq accesses(hits+misses) (Count)
system.cpu.dcache.WriteLineReq.hits::cpu.data            7                       # number of WriteLineReq hits (Count)
system.cpu.dcache.WriteLineReq.hits::total            7                       # number of WriteLineReq hits (Count)
system.cpu.dcache.WriteLineReq.misses::cpu.data            8                       # number of WriteLineReq misses (Count)
system.cpu.dcache.WriteLineReq.misses::total            8                       # number of WriteLineReq misses (Count)
system.cpu.dcache.WriteLineReq.missLatency::cpu.data       253498                       # number of WriteLineReq miss ticks (Tick)
system.cpu.dcache.WriteLineReq.missLatency::total       253498                       # number of WriteLineReq miss ticks (Tick)
system.cpu.dcache.WriteLineReq.accesses::cpu.data           15                       # number of WriteLineReq accesses(hits+misses) (Count)
system.cpu.dcache.WriteLineReq.accesses::total           15                       # number of WriteLineReq accesses(hits+misses) (Count)
system.cpu.dcache.WriteLineReq.missRate::cpu.data     0.533333                       # miss rate for WriteLineReq accesses (Ratio)
system.cpu.dcache.WriteLineReq.missRate::total     0.533333                       # miss rate for WriteLineReq accesses (Ratio)
system.cpu.dcache.WriteLineReq.avgMissLatency::cpu.data 31687.250000                       # average WriteLineReq miss latency ((Tick/Count))
system.cpu.dcache.WriteLineReq.avgMissLatency::total 31687.250000                       # average WriteLineReq miss latency ((Tick/Count))
system.cpu.dcache.WriteLineReq.mshrMisses::cpu.data            8                       # number of WriteLineReq MSHR misses (Count)
system.cpu.dcache.WriteLineReq.mshrMisses::total            8                       # number of WriteLineReq MSHR misses (Count)
system.cpu.dcache.WriteLineReq.mshrMissLatency::cpu.data       245498                       # number of WriteLineReq MSHR miss ticks (Tick)
system.cpu.dcache.WriteLineReq.mshrMissLatency::total       245498                       # number of WriteLineReq MSHR miss ticks (Tick)
system.cpu.dcache.WriteLineReq.mshrMissRate::cpu.data     0.533333                       # mshr miss rate for WriteLineReq accesses (Ratio)
system.cpu.dcache.WriteLineReq.mshrMissRate::total     0.533333                       # mshr miss rate for WriteLineReq accesses (Ratio)
system.cpu.dcache.WriteLineReq.avgMshrMissLatency::cpu.data 30687.250000                       # average WriteLineReq mshr miss latency ((Tick/Count))
system.cpu.dcache.WriteLineReq.avgMshrMissLatency::total 30687.250000                       # average WriteLineReq mshr miss latency ((Tick/Count))
system.cpu.dcache.WriteReq.hits::cpu.data       128324                       # number of WriteReq hits (Count)
system.cpu.dcache.WriteReq.hits::total         128324                       # number of WriteReq hits (Count)
system.cpu.dcache.WriteReq.misses::cpu.data         1674                       # number of WriteReq misses (Count)
system.cpu.dcache.WriteReq.misses::total         1674                       # number of WriteReq misses (Count)
system.cpu.dcache.WriteReq.missLatency::cpu.data    132325970                       # number of WriteReq miss ticks (Tick)
system.cpu.dcache.WriteReq.missLatency::total    132325970                       # number of WriteReq miss ticks (Tick)
system.cpu.dcache.WriteReq.accesses::cpu.data       129998                       # number of WriteReq accesses(hits+misses) (Count)
system.cpu.dcache.WriteReq.accesses::total       129998                       # number of WriteReq accesses(hits+misses) (Count)
system.cpu.dcache.WriteReq.missRate::cpu.data     0.012877                       # miss rate for WriteReq accesses (Ratio)
system.cpu.dcache.WriteReq.missRate::total     0.012877                       # miss rate for WriteReq accesses (Ratio)
system.cpu.dcache.WriteReq.avgMissLatency::cpu.data 79047.771804                       # average WriteReq miss latency ((Tick/Count))
system.cpu.dcache.WriteReq.avgMissLatency::total 79047.771804                       # average WriteReq miss latency ((Tick/Count))
system.cpu.dcache.WriteReq.mshrHits::cpu.data         1281                       # number of WriteReq MSHR hits (Count)
system.cpu.dcache.WriteReq.mshrHits::total         1281                       # number of WriteReq MSHR hits (Count)
system.cpu.dcache.WriteReq.mshrMisses::cpu.data          393                       # number of WriteReq MSHR misses (Count)
system.cpu.dcache.WriteReq.mshrMisses::total          393                       # number of WriteReq MSHR misses (Count)
system.cpu.dcache.WriteReq.mshrMissLatency::cpu.data     32652996                       # number of WriteReq MSHR miss ticks (Tick)
system.cpu.dcache.WriteReq.mshrMissLatency::total     32652996                       # number of WriteReq MSHR miss ticks (Tick)
system.cpu.dcache.WriteReq.mshrMissRate::cpu.data     0.003023                       # mshr miss rate for WriteReq accesses (Ratio)
system.cpu.dcache.WriteReq.mshrMissRate::total     0.003023                       # mshr miss rate for WriteReq accesses (Ratio)
system.cpu.dcache.WriteReq.avgMshrMissLatency::cpu.data 83086.503817                       # average WriteReq mshr miss latency ((Tick/Count))
system.cpu.dcache.WriteReq.avgMshrMissLatency::total 83086.503817                       # average WriteReq mshr miss latency ((Tick/Count))
system.cpu.dcache.power_state.pwrStateResidencyTicks::UNDEFINED    416373000                       # Cumulative time (in ticks) in various power states (Tick)
system.cpu.dcache.tags.tagsInUse           421.475028                       # Average ticks per tags in use ((Tick/Count))
system.cpu.dcache.tags.totalRefs               301147                       # Total number of references to valid blocks. (Count)
system.cpu.dcache.tags.sampledRefs                648                       # Sample count of references to valid blocks. (Count)
system.cpu.dcache.tags.avgRefs             464.733025                       # Average number of references to valid blocks. ((Count/Count))
system.cpu.dcache.tags.warmupTick              176500                       # The tick when the warmup percentage was hit. (Tick)
system.cpu.dcache.tags.occupancies::cpu.data   421.475028                       # Average occupied blocks per tick, per requestor ((Count/Tick))
system.cpu.dcache.tags.avgOccs::cpu.data     0.411597                       # Average percentage of cache occupancy ((Ratio/Tick))
system.cpu.dcache.tags.avgOccs::total        0.411597                       # Average percentage of cache occupancy ((Ratio/Tick))
system.cpu.dcache.tags.occupanciesTaskId::1024          587                       # Occupied blocks per task id (Count)
system.cpu.dcache.tags.ageTaskId_1024::0            9                       # Occupied blocks per task id, per block age (Count)
system.cpu.dcache.tags.ageTaskId_1024::1           75                       # Occupied blocks per task id, per block age (Count)
system.cpu.dcache.tags.ageTaskId_1024::2          503                       # Occupied blocks per task id, per block age (Count)
system.cpu.dcache.tags.ratioOccsTaskId::1024     0.573242                       # Ratio of occupied blocks and all blocks, per task id (Ratio)
system.cpu.dcache.tags.tagAccesses             606480                       # Number of tag accesses (Count)
system.cpu.dcache.tags.dataAccesses            606480                       # Number of data accesses (Count)
system.cpu.dcache.tags.power_state.pwrStateResidencyTicks::UNDEFINED    416373000                       # Cumulative time (in ticks) in various power states (Tick)
system.cpu.decode.idleCycles                   391660                       # Number of cycles decode is idle (Cycle)
system.cpu.decode.blockedCycles                104273                       # Number of cycles decode is blocked (Cycle)
system.cpu.decode.runCycles                    240270                       # Number of cycles decode is running (Cycle)
system.cpu.decode.unblockCycles                  6017                       # Number of cycles decode is unblocking (Cycle)
system.cpu.decode.squashCycles                   4170                       # Number of cycles decode is squashing (Cycle)
system.cpu.decode.branchResolved               111928                       # Number of times decode resolved a branch (Count)
system.cpu.decode.branchMispred                   463                       # Number of times decode detected a branch misprediction (Count)
system.cpu.decode.decodedInsts                1216982                       # Number of instructions handled by decode (Count)
system.cpu.decode.squashedInsts                  1646                       # Number of squashed instructions handled by decode (Count)
system.cpu.fetch.icacheStallCycles             415791                       # Number of cycles fetch is stalled on an Icache miss (Cycle)
system.cpu.fetch.insts                        1110271                       # Number of instructions fetch has processed (Count)
system.cpu.fetch.branches                      240789                       # Number of branches that fetch encountered (Count)
system.cpu.fetch.predictedBranches             127688                       # Number of branches that fetch has predicted taken (Count)
system.cpu.fetch.cycles                        325919                       # Number of cycles fetch has run and was not squashing or blocked (Cycle)
system.cpu.fetch.squashCycles                    9254                       # Number of cycles fetch has spent squashing (Cycle)
system.cpu.fetch.miscStallCycles                   15                       # Number of cycles fetch has spent waiting on interrupts, or bad addresses, or out of MSHRs (Cycle)
system.cpu.fetch.icacheWaitRetryStallCycles           38                       # Number of stall cycles due to full MSHR (Cycle)
system.cpu.fetch.cacheLines                    187100                       # Number of cache lines fetched (Count)
system.cpu.fetch.icacheSquashes                  2483                       # Number of outstanding Icache misses that were squashed (Count)
system.cpu.fetch.nisnDist::samples             746390                       # Number of instructions fetched each cycle (Total) (Count)
system.cpu.fetch.nisnDist::mean              1.654289                       # Number of instructions fetched each cycle (Total) (Count)
system.cpu.fetch.nisnDist::stdev             2.756580                       # Number of instructions fetched each cycle (Total) (Count)
system.cpu.fetch.nisnDist::underflows               0      0.00%      0.00% # Number of instructions fetched each cycle (Total) (Count)
system.cpu.fetch.nisnDist::0                   489759     65.62%     65.62% # Number of instructions fetched each cycle (Total) (Count)
system.cpu.fetch.nisnDist::1                    35227      4.72%     70.34% # Number of instructions fetched each cycle (Total) (Count)
system.cpu.fetch.nisnDist::2                    34497      4.62%     74.96% # Number of instructions fetched each cycle (Total) (Count)
system.cpu.fetch.nisnDist::3                    28979      3.88%     78.84% # Number of instructions fetched each cycle (Total) (Count)
system.cpu.fetch.nisnDist::4                    25412      3.40%     82.25% # Number of instructions fetched each cycle (Total) (Count)
system.cpu.fetch.nisnDist::5                    20990      2.81%     85.06% # Number of instructions fetched each cycle (Total) (Count)
system.cpu.fetch.nisnDist::6                    19745      2.65%     87.70% # Number of instructions fetched each cycle (Total) (Count)
system.cpu.fetch.nisnDist::7                    15729      2.11%     89.81% # Number of instructions fetched each cycle (Total) (Count)
system.cpu.fetch.nisnDist::8                    76052     10.19%    100.00% # Number of instructions fetched each cycle (Total) (Count)
system.cpu.fetch.nisnDist::overflows                0      0.00%    100.00% # Number of instructions fetched each cycle (Total) (Count)
system.cpu.fetch.nisnDist::min_value                0                       # Number of instructions fetched each cycle (Total) (Count)
system.cpu.fetch.nisnDist::max_value                8                       # Number of instructions fetched each cycle (Total) (Count)
system.cpu.fetch.nisnDist::total               746390                       # Number of instructions fetched each cycle (Total) (Count)
system.cpu.fetch.branchRate                  0.289150                       # Number of branch fetches per cycle (Ratio)
system.cpu.fetch.rate                        1.333262                       # Number of inst fetches per cycle ((Count/Cycle))
system.cpu.icache.demandHits::cpu.inst         175864                       # number of demand (read+write) hits (Count)
system.cpu.icache.demandHits::total            175864                       # number of demand (read+write) hits (Count)
system.cpu.icache.overallHits::cpu.inst        175864                       # number of overall hits (Count)
system.cpu.icache.overallHits::total           175864                       # number of overall hits (Count)
system.cpu.icache.demandMisses::cpu.inst        11235                       # number of demand (read+write) misses (Count)
system.cpu.icache.demandMisses::total           11235                       # number of demand (read+write) misses (Count)
system.cpu.icache.overallMisses::cpu.inst        11235                       # number of overall misses (Count)
system.cpu.icache.overallMisses::total          11235                       # number of overall misses (Count)
system.cpu.icache.demandMissLatency::cpu.inst    212223998                       # number of demand (read+write) miss ticks (Tick)
system.cpu.icache.demandMissLatency::total    212223998                       # number of demand (read+write) miss ticks (Tick)
system.cpu.icache.overallMissLatency::cpu.inst    212223998                       # number of overall miss ticks (Tick)
system.cpu.icache.overallMissLatency::total    212223998                       # number of overall miss ticks (Tick)
system.cpu.icache.demandAccesses::cpu.inst       187099                       # number of demand (read+write) accesses (Count)
system.cpu.icache.demandAccesses::total        187099                       # number of demand (read+write) accesses (Count)
system.cpu.icache.overallAccesses::cpu.inst       187099                       # number of overall (read+write) accesses (Count)
system.cpu.icache.overallAccesses::total       187099                       # number of overall (read+write) accesses (Count)
system.cpu.icache.demandMissRate::cpu.inst     0.060048                       # miss rate for demand accesses (Ratio)
system.cpu.icache.demandMissRate::total      0.060048                       # miss rate for demand accesses (Ratio)
system.cpu.icache.overallMissRate::cpu.inst     0.060048                       # miss rate for overall accesses (Ratio)
system.cpu.icache.overallMissRate::total     0.060048                       # miss rate for overall accesses (Ratio)
system.cpu.icache.demandAvgMissLatency::cpu.inst 18889.541433                       # average overall miss latency in ticks ((Tick/Count))
system.cpu.icache.demandAvgMissLatency::total 18889.541433                       # average overall miss latency in ticks ((Tick/Count))
system.cpu.icache.overallAvgMissLatency::cpu.inst 18889.541433                       # average overall miss latency ((Tick/Count))
system.cpu.icache.overallAvgMissLatency::total 18889.541433                       # average overall miss latency ((Tick/Count))
system.cpu.icache.blockedCycles::no_mshrs          800                       # number of cycles access was blocked (Cycle)
system.cpu.icache.blockedCycles::no_targets            0                       # number of cycles access was blocked (Cycle)
system.cpu.icache.blockedCauses::no_mshrs           19                       # number of times access was blocked (Count)
system.cpu.icache.blockedCauses::no_targets            0                       # number of times access was blocked (Count)
system.cpu.icache.avgBlocked::no_mshrs      42.105263                       # average number of cycles each access was blocked ((Cycle/Count))
system.cpu.icache.avgBlocked::no_targets          nan                       # average number of cycles each access was blocked ((Cycle/Count))
system.cpu.icache.writebacks::writebacks        10463                       # number of writebacks (Count)
system.cpu.icache.writebacks::total             10463                       # number of writebacks (Count)
system.cpu.icache.demandMshrHits::cpu.inst          516                       # number of demand (read+write) MSHR hits (Count)
system.cpu.icache.demandMshrHits::total           516                       # number of demand (read+write) MSHR hits (Count)
system.cpu.icache.overallMshrHits::cpu.inst          516                       # number of overall MSHR hits (Count)
system.cpu.icache.overallMshrHits::total          516                       # number of overall MSHR hits (Count)
system.cpu.icache.demandMshrMisses::cpu.inst        10719                       # number of demand (read+write) MSHR misses (Count)
system.cpu.icache.demandMshrMisses::total        10719                       # number of demand (read+write) MSHR misses (Count)
system.cpu.icache.overallMshrMisses::cpu.inst        10719                       # number of overall MSHR misses (Count)
system.cpu.icache.overallMshrMisses::total        10719                       # number of overall MSHR misses (Count)
system.cpu.icache.demandMshrMissLatency::cpu.inst    185342498                       # number of demand (read+write) MSHR miss ticks (Tick)
system.cpu.icache.demandMshrMissLatency::total    185342498                       # number of demand (read+write) MSHR miss ticks (Tick)
system.cpu.icache.overallMshrMissLatency::cpu.inst    185342498                       # number of overall MSHR miss ticks (Tick)
system.cpu.icache.overallMshrMissLatency::total    185342498                       # number of overall MSHR miss ticks (Tick)
system.cpu.icache.demandMshrMissRate::cpu.inst     0.057291                       # mshr miss ratio for demand accesses (Ratio)
system.cpu.icache.demandMshrMissRate::total     0.057291                       # mshr miss ratio for demand accesses (Ratio)
system.cpu.icache.overallMshrMissRate::cpu.inst     0.057291                       # mshr miss ratio for overall accesses (Ratio)
system.cpu.icache.overallMshrMissRate::total     0.057291                       # mshr miss ratio for overall accesses (Ratio)
system.cpu.icache.demandAvgMshrMissLatency::cpu.inst 17291.025096                       # average overall mshr miss latency ((Tick/Count))
system.cpu.icache.demandAvgMshrMissLatency::total 17291.025096                       # average overall mshr miss latency ((Tick/Count))
system.cpu.icache.overallAvgMshrMissLatency::cpu.inst 17291.025096                       # average overall mshr miss latency ((Tick/Count))
system.cpu.icache.overallAvgMshrMissLatency::total 17291.025096                       # average overall mshr miss latency ((Tick/Count))
system.cpu.icache.replacements                  10463                       # number of replacements (Count)
system.cpu.icache.ReadReq.hits::cpu.inst       175864                       # number of ReadReq hits (Count)
system.cpu.icache.ReadReq.hits::total          175864                       # number of ReadReq hits (Count)
system.cpu.icache.ReadReq.misses::cpu.inst        11235                       # number of ReadReq misses (Count)
system.cpu.icache.ReadReq.misses::total         11235                       # number of ReadReq misses (Count)
system.cpu.icache.ReadReq.missLatency::cpu.inst    212223998                       # number of ReadReq miss ticks (Tick)
system.cpu.icache.ReadReq.missLatency::total    212223998                       # number of ReadReq miss ticks (Tick)
system.cpu.icache.ReadReq.accesses::cpu.inst       187099                       # number of ReadReq accesses(hits+misses) (Count)
system.cpu.icache.ReadReq.accesses::total       187099                       # number of ReadReq accesses(hits+misses) (Count)
system.cpu.icache.ReadReq.missRate::cpu.inst     0.060048                       # miss rate for ReadReq accesses (Ratio)
system.cpu.icache.ReadReq.missRate::total     0.060048                       # miss rate for ReadReq accesses (Ratio)
system.cpu.icache.ReadReq.avgMissLatency::cpu.inst 18889.541433                       # average ReadReq miss latency ((Tick/Count))
system.cpu.icache.ReadReq.avgMissLatency::total 18889.541433                       # average ReadReq miss latency ((Tick/Count))
system.cpu.icache.ReadReq.mshrHits::cpu.inst          516                       # number of ReadReq MSHR hits (Count)
system.cpu.icache.ReadReq.mshrHits::total          516                       # number of ReadReq MSHR hits (Count)
system.cpu.icache.ReadReq.mshrMisses::cpu.inst        10719                       # number of ReadReq MSHR misses (Count)
system.cpu.icache.ReadReq.mshrMisses::total        10719                       # number of ReadReq MSHR misses (Count)
system.cpu.icache.ReadReq.mshrMissLatency::cpu.inst    185342498                       # number of ReadReq MSHR miss ticks (Tick)
system.cpu.icache.ReadReq.mshrMissLatency::total    185342498                       # number of ReadReq MSHR miss ticks (Tick)
system.cpu.icache.ReadReq.mshrMissRate::cpu.inst     0.057291                       # mshr miss rate for ReadReq accesses (Ratio)
system.cpu.icache.ReadReq.mshrMissRate::total     0.057291                       # mshr miss rate for ReadReq accesses (Ratio)
system.cpu.icache.ReadReq.avgMshrMissLatency::cpu.inst 17291.025096                       # average ReadReq mshr miss latency ((Tick/Count))
system.cpu.icache.ReadReq.avgMshrMissLatency::total 17291.025096                       # average ReadReq mshr miss latency ((Tick/Count))
system.cpu.icache.power_state.pwrStateResidencyTicks::UNDEFINED    416373000                       # Cumulative time (in ticks) in various power states (Tick)
system.cpu.icache.tags.tagsInUse           249.821237                       # Average ticks per tags in use ((Tick/Count))
system.cpu.icache.tags.totalRefs               186583                       # Total number of references to valid blocks. (Count)
system.cpu.icache.tags.sampledRefs              10719                       # Sample count of references to valid blocks. (Count)
system.cpu.icache.tags.avgRefs              17.406754                       # Average number of references to valid blocks. ((Count/Count))
system.cpu.icache.tags.warmupTick               87500                       # The tick when the warmup percentage was hit. (Tick)
system.cpu.icache.tags.occupancies::cpu.inst   249.821237                       # Average occupied blocks per tick, per requestor ((Count/Tick))
system.cpu.icache.tags.avgOccs::cpu.inst     0.975864                       # Average percentage of cache occupancy ((Ratio/Tick))
system.cpu.icache.tags.avgOccs::total        0.975864                       # Average percentage of cache occupancy ((Ratio/Tick))
system.cpu.icache.tags.occupanciesTaskId::1024          256                       # Occupied blocks per task id (Count)
system.cpu.icache.tags.ageTaskId_1024::0           18                       # Occupied blocks per task id, per block age (Count)
system.cpu.icache.tags.ageTaskId_1024::1            2                       # Occupied blocks per task id, per block age (Count)
system.cpu.icache.tags.ageTaskId_1024::2          236                       # Occupied blocks per task id, per block age (Count)
system.cpu.icache.tags.ratioOccsTaskId::1024            1                       # Ratio of occupied blocks and all blocks, per task id (Ratio)
system.cpu.icache.tags.tagAccesses             384917                       # Number of tag accesses (Count)
system.cpu.icache.tags.dataAccesses            384917                       # Number of data accesses (Count)
system.cpu.icache.tags.power_state.pwrStateResidencyTicks::UNDEFINED    416373000                       # Cumulative time (in ticks) in various power states (Tick)
system.cpu.iew.idleCycles                           0                       # Number of cycles IEW is idle (Cycle)
system.cpu.iew.squashCycles                      4170                       # Number of cycles IEW is squashing (Cycle)
system.cpu.iew.blockCycles                      12182                       # Number of cycles IEW is blocking (Cycle)
system.cpu.iew.unblockCycles                     3013                       # Number of cycles IEW is unblocking (Cycle)
system.cpu.iew.dispatchedInsts                1187905                       # Number of instructions dispatched to IQ (Count)
system.cpu.iew.dispSquashedInsts                 4014                       # Number of squashed instructions skipped by dispatch (Count)
system.cpu.iew.dispLoadInsts                   189415                       # Number of dispatched load instructions (Count)
system.cpu.iew.dispStoreInsts                  137591                       # Number of dispatched store instructions (Count)
system.cpu.iew.dispNonSpecInsts                   508                       # Number of dispatched non-speculative instructions (Count)
system.cpu.iew.iqFullEvents                        57                       # Number of times the IQ has become full, causing a stall (Count)
system.cpu.iew.lsqFullEvents                     2911                       # Number of times the LSQ has become full, causing a stall (Count)
system.cpu.iew.memOrderViolationEvents             51                       # Number of memory order violations (Count)
system.cpu.iew.predictedTakenIncorrect           1497                       # Number of branches that were predicted taken incorrectly (Count)
system.cpu.iew.predictedNotTakenIncorrect         2870                       # Number of branches that were predicted not taken incorrectly (Count)
system.cpu.iew.branchMispredicts                 4367                       # Number of branch mispredicts detected at execute (Count)
system.cpu.iew.instsToCommit                  1156691                       # Cumulative count of insts sent to commit (Count)
system.cpu.iew.writebackCount                 1155185                       # Cumulative count of insts written-back (Count)
system.cpu.iew.producerInst                    580624                       # Number of instructions producing a value (Count)
system.cpu.iew.consumerInst                   1023602                       # Number of instructions consuming a value (Count)
system.cpu.iew.wbRate                        1.387196                       # Insts written-back per cycle ((Count/Cycle))
system.cpu.iew.wbFanout                      0.567236                       # Average fanout of values written-back ((Count/Count))
system.cpu.lsq0.forwLoads                       13434                       # Number of loads that had data forwarded from stores (Count)
system.cpu.lsq0.squashedLoads                   12477                       # Number of loads squashed (Count)
system.cpu.lsq0.ignoredResponses                  160                       # Number of memory responses ignored because the instruction is squashed (Count)
system.cpu.lsq0.memOrderViolation                  51                       # Number of memory ordering violations (Count)
system.cpu.lsq0.squashedStores                   7097                       # Number of stores squashed (Count)
system.cpu.lsq0.rescheduledLoads                10338                       # Number of loads that were rescheduled (Count)
system.cpu.lsq0.blockedByCache                     47                       # Number of times an access to memory failed due to the cache being blocked (Count)
system.cpu.lsq0.loadToUse::samples             175689                       # Distribution of cycle latency between the first time a load is issued and its completion (Unspecified)
system.cpu.lsq0.loadToUse::mean              4.229161                       # Distribution of cycle latency between the first time a load is issued and its completion (Unspecified)
system.cpu.lsq0.loadToUse::stdev            11.583028                       # Distribution of cycle latency between the first time a load is issued and its completion (Unspecified)
system.cpu.lsq0.loadToUse::0-9                 172612     98.25%     98.25% # Distribution of cycle latency between the first time a load is issued and its completion (Unspecified)
system.cpu.lsq0.loadToUse::10-19                 1173      0.67%     98.92% # Distribution of cycle latency between the first time a load is issued and its completion (Unspecified)
system.cpu.lsq0.loadToUse::20-29                 1087      0.62%     99.53% # Distribution of cycle latency between the first time a load is issued and its completion (Unspecified)
[...]
system.mem_ctrls.dram.perBankWrBursts::8            0                       # Per bank write bursts (Count)
system.mem_ctrls.dram.perBankWrBursts::9            0                       # Per bank write bursts (Count)
system.mem_ctrls.dram.perBankWrBursts::10            0                       # Per bank write bursts (Count)
system.mem_ctrls.dram.perBankWrBursts::11            0                       # Per bank write bursts (Count)
system.mem_ctrls.dram.perBankWrBursts::12            0                       # Per bank write bursts (Count)
system.mem_ctrls.dram.perBankWrBursts::13            0                       # Per bank write bursts (Count)
system.mem_ctrls.dram.perBankWrBursts::14            0                       # Per bank write bursts (Count)
system.mem_ctrls.dram.perBankWrBursts::15            0                       # Per bank write bursts (Count)
system.mem_ctrls.dram.totQLat                14588500                       # Total ticks spent queuing (Tick)
system.mem_ctrls.dram.totBusLat               7025000                       # Total ticks spent in databus transfers (Tick)
system.mem_ctrls.dram.totMemAccLat           40932250                       # Total ticks spent from burst creation until serviced by the DRAM (Tick)
system.mem_ctrls.dram.avgQLat                10383.27                       # Average queueing delay per DRAM burst ((Tick/Count))
system.mem_ctrls.dram.avgBusLat               5000.00                       # Average bus latency per DRAM burst ((Tick/Count))
system.mem_ctrls.dram.avgMemAccLat           29133.27                       # Average memory access latency per DRAM burst ((Tick/Count))
system.mem_ctrls.dram.readRowHits                1009                       # Number of row buffer hits during reads (Count)
system.mem_ctrls.dram.writeRowHits                  0                       # Number of row buffer hits during writes (Count)
system.mem_ctrls.dram.readRowHitRate            71.81                       # Row buffer hit rate for reads (Ratio)
system.mem_ctrls.dram.writeRowHitRate             nan                       # Row buffer hit rate for writes (Ratio)
system.mem_ctrls.dram.bytesPerActivate::samples          393                       # Bytes accessed per row activation (Byte)
system.mem_ctrls.dram.bytesPerActivate::mean   228.315522                       # Bytes accessed per row activation (Byte)
system.mem_ctrls.dram.bytesPerActivate::gmean   154.192832                       # Bytes accessed per row activation (Byte)
system.mem_ctrls.dram.bytesPerActivate::stdev   248.007123                       # Bytes accessed per row activation (Byte)
system.mem_ctrls.dram.bytesPerActivate::0-127          121     30.79%     30.79% # Bytes accessed per row activation (Byte)
system.mem_ctrls.dram.bytesPerActivate::128-255          175     44.53%     75.32% # Bytes accessed per row activation (Byte)
system.mem_ctrls.dram.bytesPerActivate::256-383           29      7.38%     82.70% # Bytes accessed per row activation (Byte)
system.mem_ctrls.dram.bytesPerActivate::384-511           19      4.83%     87.53% # Bytes accessed per row activation (Byte)
system.mem_ctrls.dram.bytesPerActivate::512-639           12      3.05%     90.59% # Bytes accessed per row activation (Byte)
system.mem_ctrls.dram.bytesPerActivate::640-767            9      2.29%     92.88% # Bytes accessed per row activation (Byte)
system.mem_ctrls.dram.bytesPerActivate::768-895            5      1.27%     94.15% # Bytes accessed per row activation (Byte)
system.mem_ctrls.dram.bytesPerActivate::896-1023            4      1.02%     95.17% # Bytes accessed per row activation (Byte)
system.mem_ctrls.dram.bytesPerActivate::1024-1151           19      4.83%    100.00% # Bytes accessed per row activation (Byte)
system.mem_ctrls.dram.bytesPerActivate::total          393                       # Bytes accessed per row activation (Byte)
system.mem_ctrls.dram.bytesRead                 89920                       # Total bytes read (Byte)
system.mem_ctrls.dram.bytesWritten                  0                       # Total bytes written (Byte)
system.mem_ctrls.dram.avgRdBW              215.960209                       # Average DRAM read bandwidth in MiBytes/s ((Byte/Second))
system.mem_ctrls.dram.avgWrBW                       0                       # Average DRAM write bandwidth in MiBytes/s ((Byte/Second))
system.mem_ctrls.dram.peakBW                 12800.00                       # Theoretical peak bandwidth in MiByte/s ((Byte/Second))
system.mem_ctrls.dram.busUtil                    1.69                       # Data bus utilization in percentage (Ratio)
system.mem_ctrls.dram.busUtilRead                1.69                       # Data bus utilization in percentage for reads (Ratio)
system.mem_ctrls.dram.busUtilWrite               0.00                       # Data bus utilization in percentage for writes (Ratio)
system.mem_ctrls.dram.pageHitRate               71.81                       # Row buffer hit rate, read and write combined (Ratio)
system.mem_ctrls.dram.power_state.pwrStateResidencyTicks::UNDEFINED    416373000                       # Cumulative time (in ticks) in various power states (Tick)
system.mem_ctrls.dram.rank0.actEnergy         1313760                       # Energy for activate commands per rank (pJ) (Joule)
system.mem_ctrls.dram.rank0.preEnergy          694485                       # Energy for precharge commands per rank (pJ) (Joule)
system.mem_ctrls.dram.rank0.readEnergy        5819100                       # Energy for read commands per rank (pJ) (Joule)
system.mem_ctrls.dram.rank0.writeEnergy             0                       # Energy for write commands per rank (pJ) (Joule)
system.mem_ctrls.dram.rank0.refreshEnergy 32575920.000000                       # Energy for refresh commands per rank (pJ) (Joule)
system.mem_ctrls.dram.rank0.actBackEnergy    122888580                       # Energy for active background per rank (pJ) (Joule)
system.mem_ctrls.dram.rank0.preBackEnergy     56402400                       # Energy for precharge background per rank (pJ) (Joule)
system.mem_ctrls.dram.rank0.actPowerDownEnergy            0                       # Energy for active power-down per rank (pJ) (Joule)
system.mem_ctrls.dram.rank0.prePowerDownEnergy            0                       # Energy for precharge power-down per rank (pJ) (Joule)
system.mem_ctrls.dram.rank0.selfRefreshEnergy            0                       # Energy for self refresh per rank (pJ) (Joule)
system.mem_ctrls.dram.rank0.totalEnergy     219694245                       # Total energy per rank (pJ) (Joule)
system.mem_ctrls.dram.rank0.averagePower   527.638067                       # Core power per rank (mW) (Watt)
system.mem_ctrls.dram.rank0.totalIdleTime            0                       # Total Idle time Per DRAM Rank (Tick)
system.mem_ctrls.dram.rank0.pwrStateTime::IDLE    145569750                       # Time in different power states (Tick)
system.mem_ctrls.dram.rank0.pwrStateTime::REF     13780000                       # Time in different power states (Tick)
system.mem_ctrls.dram.rank0.pwrStateTime::SREF            0                       # Time in different power states (Tick)
system.mem_ctrls.dram.rank0.pwrStateTime::PRE_PDN            0                       # Time in different power states (Tick)
system.mem_ctrls.dram.rank0.pwrStateTime::ACT    257023250                       # Time in different power states (Tick)
system.mem_ctrls.dram.rank0.pwrStateTime::ACT_PDN            0                       # Time in different power states (Tick)
system.mem_ctrls.dram.rank1.actEnergy         1513680                       # Energy for activate commands per rank (pJ) (Joule)
system.mem_ctrls.dram.rank1.preEnergy          796950                       # Energy for precharge commands per rank (pJ) (Joule)
system.mem_ctrls.dram.rank1.readEnergy        4212600                       # Energy for read commands per rank (pJ) (Joule)
system.mem_ctrls.dram.rank1.writeEnergy             0                       # Energy for write commands per rank (pJ) (Joule)
system.mem_ctrls.dram.rank1.refreshEnergy 32575920.000000                       # Energy for refresh commands per rank (pJ) (Joule)
system.mem_ctrls.dram.rank1.actBackEnergy    169683870                       # Energy for active background per rank (pJ) (Joule)
system.mem_ctrls.dram.rank1.preBackEnergy     16995840                       # Energy for precharge background per rank (pJ) (Joule)
system.mem_ctrls.dram.rank1.actPowerDownEnergy            0                       # Energy for active power-down per rank (pJ) (Joule)
system.mem_ctrls.dram.rank1.prePowerDownEnergy            0                       # Energy for precharge power-down per rank (pJ) (Joule)
system.mem_ctrls.dram.rank1.selfRefreshEnergy            0                       # Energy for self refresh per rank (pJ) (Joule)
system.mem_ctrls.dram.rank1.totalEnergy     225778860                       # Total energy per rank (pJ) (Joule)
system.mem_ctrls.dram.rank1.averagePower   542.251443                       # Core power per rank (mW) (Watt)
system.mem_ctrls.dram.rank1.totalIdleTime            0                       # Total Idle time Per DRAM Rank (Tick)
system.mem_ctrls.dram.rank1.pwrStateTime::IDLE     42739250                       # Time in different power states (Tick)
system.mem_ctrls.dram.rank1.pwrStateTime::REF     13780000                       # Time in different power states (Tick)
system.mem_ctrls.dram.rank1.pwrStateTime::SREF            0                       # Time in different power states (Tick)
system.mem_ctrls.dram.rank1.pwrStateTime::PRE_PDN            0                       # Time in different power states (Tick)
system.mem_ctrls.dram.rank1.pwrStateTime::ACT    359853750                       # Time in different power states (Tick)
system.mem_ctrls.dram.rank1.pwrStateTime::ACT_PDN            0                       # Time in different power states (Tick)
system.mem_ctrls.power_state.pwrStateResidencyTicks::UNDEFINED    416373000                       # Cumulative time (in ticks) in various power states (Tick)
system.membus.transDist::ReadResp                1021                       # Transaction distribution (Count)
system.membus.transDist::ReadExReq                384                       # Transaction distribution (Count)
system.membus.transDist::ReadExResp               384                       # Transaction distribution (Count)
system.membus.transDist::ReadSharedReq           1021                       # Transaction distribution (Count)
system.membus.transDist::InvalidateReq             13                       # Transaction distribution (Count)
system.membus.pktCount_system.l2.mem_side_port::system.mem_ctrls.port         2823                       # Packet count per connected requestor and responder (Count)
system.membus.pktCount::total                    2823                       # Packet count per connected requestor and responder (Count)
system.membus.pktSize_system.l2.mem_side_port::system.mem_ctrls.port        89920                       # Cumulative packet size per connected requestor and responder (Byte)
system.membus.pktSize::total                    89920                       # Cumulative packet size per connected requestor and responder (Byte)
system.membus.snoops                                0                       # Total snoops (Count)
system.membus.snoopTraffic                          0                       # Total snoop traffic (Byte)
system.membus.snoopFanout::samples               1418                       # Request fanout histogram (Count)
system.membus.snoopFanout::mean                     0                       # Request fanout histogram (Count)
system.membus.snoopFanout::stdev                    0                       # Request fanout histogram (Count)
system.membus.snoopFanout::underflows               0      0.00%      0.00% # Request fanout histogram (Count)
system.membus.snoopFanout::0                     1418    100.00%    100.00% # Request fanout histogram (Count)
system.membus.snoopFanout::1                        0      0.00%    100.00% # Request fanout histogram (Count)
system.membus.snoopFanout::overflows                0      0.00%    100.00% # Request fanout histogram (Count)
system.membus.snoopFanout::min_value                0                       # Request fanout histogram (Count)
system.membus.snoopFanout::max_value                0                       # Request fanout histogram (Count)
system.membus.snoopFanout::total                 1418                       # Request fanout histogram (Count)
system.membus.power_state.pwrStateResidencyTicks::UNDEFINED    416373000                       # Cumulative time (in ticks) in various power states (Tick)
system.membus.reqLayer0.occupancy             1733000                       # Layer occupancy (ticks) (Tick)
system.membus.reqLayer0.utilization               0.0                       # Layer utilization (Ratio)
system.membus.respLayer1.occupancy            7461250                       # Layer occupancy (ticks) (Tick)
system.membus.respLayer1.utilization              0.0                       # Layer utilization (Ratio)
system.membus.snoop_filter.totRequests           1418                       # Total number of requests made to the snoop filter. (Count)
system.membus.snoop_filter.hitSingleRequests            0                       # Number of requests hitting in the snoop filter with a single holder of the requested data. (Count)
system.membus.snoop_filter.hitMultiRequests            0                       # Number of requests hitting in the snoop filter with multiple (>1) holders of the requested data. (Count)
system.membus.snoop_filter.totSnoops                0                       # Total number of snoops made to the snoop filter. (Count)
system.membus.snoop_filter.hitSingleSnoops            0                       # Number of snoops hitting in the snoop filter with a single holder of the requested data. (Count)
system.membus.snoop_filter.hitMultiSnoops            0                       # Number of snoops hitting in the snoop filter with multiple (>1) holders of the requested data. (Count)
system.tol2bus.transDist::ReadResp              10966                       # Transaction distribution (Count)
system.tol2bus.transDist::WritebackDirty           43                       # Transaction distribution (Count)
system.tol2bus.transDist::WritebackClean        10463                       # Transaction distribution (Count)
system.tol2bus.transDist::CleanEvict               18                       # Transaction distribution (Count)
system.tol2bus.transDist::ReadExReq               388                       # Transaction distribution (Count)
system.tol2bus.transDist::ReadExResp              388                       # Transaction distribution (Count)
system.tol2bus.transDist::ReadCleanReq          10719                       # Transaction distribution (Count)
system.tol2bus.transDist::ReadSharedReq           247                       # Transaction distribution (Count)
system.tol2bus.transDist::InvalidateReq            13                       # Transaction distribution (Count)
system.tol2bus.transDist::InvalidateResp           13                       # Transaction distribution (Count)
system.tol2bus.pktCount_system.cpu.icache.mem_side_port::system.l2.cpu_side_port        31901                       # Packet count per connected requestor and responder (Count)
system.tol2bus.pktCount_system.cpu.dcache.mem_side_port::system.l2.cpu_side_port         1357                       # Packet count per connected requestor and responder (Count)
system.tol2bus.pktCount::total                  33258                       # Packet count per connected requestor and responder (Count)
system.tol2bus.pktSize_system.cpu.icache.mem_side_port::system.l2.cpu_side_port      1355648                       # Cumulative packet size per connected requestor and responder (Byte)
system.tol2bus.pktSize_system.cpu.dcache.mem_side_port::system.l2.cpu_side_port        43392                       # Cumulative packet size per connected requestor and responder (Byte)
system.tol2bus.pktSize::total                 1399040                       # Cumulative packet size per connected requestor and responder (Byte)
system.tol2bus.snoops                               0                       # Total snoops (Count)
system.tol2bus.snoopTraffic                         0                       # Total snoop traffic (Byte)
system.tol2bus.snoopFanout::samples             11367                       # Request fanout histogram (Count)
system.tol2bus.snoopFanout::mean             0.000088                       # Request fanout histogram (Count)
system.tol2bus.snoopFanout::stdev            0.009379                       # Request fanout histogram (Count)
system.tol2bus.snoopFanout::underflows              0      0.00%      0.00% # Request fanout histogram (Count)
system.tol2bus.snoopFanout::0                   11366     99.99%     99.99% # Request fanout histogram (Count)
system.tol2bus.snoopFanout::1                       1      0.01%    100.00% # Request fanout histogram (Count)
system.tol2bus.snoopFanout::2                       0      0.00%    100.00% # Request fanout histogram (Count)
system.tol2bus.snoopFanout::overflows               0      0.00%    100.00% # Request fanout histogram (Count)
system.tol2bus.snoopFanout::min_value               0                       # Request fanout histogram (Count)
system.tol2bus.snoopFanout::max_value               1                       # Request fanout histogram (Count)
system.tol2bus.snoopFanout::total               11367                       # Request fanout histogram (Count)
system.tol2bus.power_state.pwrStateResidencyTicks::UNDEFINED    416373000                       # Cumulative time (in ticks) in various power states (Tick)
system.tol2bus.reqLayer0.occupancy           21451500                       # Layer occupancy (ticks) (Tick)
system.tol2bus.reqLayer0.utilization              0.1                       # Layer utilization (Ratio)
system.tol2bus.respLayer0.occupancy          16078500                       # Layer occupancy (ticks) (Tick)
system.tol2bus.respLayer0.utilization             0.0                       # Layer utilization (Ratio)
system.tol2bus.respLayer1.occupancy            959998                       # Layer occupancy (ticks) (Tick)
system.tol2bus.respLayer1.utilization             0.0                       # Layer utilization (Ratio)
system.tol2bus.snoop_filter.totRequests         21891                       # Total number of requests made to the snoop filter. (Count)
system.tol2bus.snoop_filter.hitSingleRequests        10524                       # Number of requests hitting in the snoop filter with a single holder of the requested data. (Count)
system.tol2bus.snoop_filter.hitMultiRequests            1                       # Number of requests hitting in the snoop filter with multiple (>1) holders of the requested data. (Count)
system.tol2bus.snoop_filter.totSnoops               0                       # Total number of snoops made to the snoop filter. (Count)
system.tol2bus.snoop_filter.hitSingleSnoops            0                       # Number of snoops hitting in the snoop filter with a single holder of the requested data. (Count)
system.tol2bus.snoop_filter.hitMultiSnoops            0                       # Number of snoops hitting in the snoop filter with multiple (>1) holders of the requested data. (Count)
system.voltage_domain.voltage                       1                       # Voltage in Volts (Volt)
system.workload.inst.arm                            0                       # number of arm instructions executed (Count)
system.workload.inst.quiesce                        0                       # number of quiesce instructions executed (Count)

---------- End Simulation Statistics   ----------
